61

C          0.78062       -1.00825        0.09984
C          2.17086       -0.38695        0.03378
C          3.25012       -0.97006        0.94567
C          4.47837       -0.42494        1.06903
C          4.94116        0.78956        0.29769
C          5.21893       -1.23857        2.08227
C          6.47942       -1.10638        2.62082
C          7.42147        0.00761        2.24554
C          6.92273       -2.12271        3.65109
C          8.13508       -2.24898        4.37364
C          9.38459       -1.40247        4.38290
C          7.98548       -3.35562        5.21059
C          8.97470       -3.86330        6.19266
C          8.61649       -4.32867        7.45895
S         10.00618       -4.80006        8.26514
C         11.01539       -4.41627        6.97227
N         12.41965       -4.67824        6.92580
C         13.17000       -4.59995        5.68745
C         13.75922       -5.99522        5.42283
O         14.55438       -6.41992        6.52065
C         13.74856       -6.54229        7.68434
C         13.15687       -5.18251        8.07192
N         10.31116       -3.90253        5.93543
C          6.72612       -3.88002        4.96061
C          6.12784       -5.12637        5.56435
N          6.09999       -3.12900        4.02927
B          4.68539       -3.36689        3.48142
F          3.73895       -3.32150        4.58781
F          4.63029       -4.67144        2.83491
N          4.33176       -2.27830        2.46724
C          3.20535       -2.15744        1.84226
C          2.03246       -3.10626        1.99863
H          0.10542       -0.45583       -0.58742
H          0.36299       -0.90533        1.12246
H          0.79118       -2.06470       -0.22718
H          2.03724        0.68004        0.31243
H          2.52789       -0.43832       -1.01837
H          4.18213        1.16898       -0.41291
H          5.83057        0.52506       -0.31195
H          5.16178        1.62128        0.99705
H          7.06139        0.71866        1.50673
H          8.34562       -0.42415        1.81181
H          7.63460        0.61513        3.14917
H          9.38191       -0.53258        3.72079
H         10.25571       -2.02197        4.09001
H          9.54756       -1.01651        5.41183
H          7.61927       -4.35605        7.87581
H         13.99616       -3.86629        5.80274
H         12.53931       -4.28885        4.82784
H         14.39400       -5.95772        4.51313
H         12.94928       -6.73391        5.22187
H         14.37686       -6.91350        8.52173
H         12.94103       -7.29358        7.52542
H         13.98359       -4.47815        8.30942
H         12.52946       -5.28859        8.97836
H          6.82349       -5.66188        6.23331
H          5.88153       -5.84045        4.75137
H          5.20592       -4.87483        6.12441
H          2.22057       -3.93316        2.70766
H          1.80763       -3.58194        1.02366
H          1.14913       -2.56234        2.38194
