36

C          0.81279       -0.46700        0.32366
C          2.26726       -0.08478        0.08008
C          3.09265        0.35345        1.28746
C          4.37139        0.77126        1.18175
C          5.14674        0.84430       -0.11113
C          4.82317        1.13445        2.55072
C          6.01496        1.63087        3.00526
C          7.22641        1.94451        2.15792
C          6.13714        1.89272        4.46333
C          7.23946        2.39569        5.13416
C          6.88662        2.46513        6.46659
I          8.12802        3.15468        8.02636
C          5.58580        2.00280        6.56456
I          4.46275        1.85876        8.35691
N          5.14175        1.65888        5.33684
B          3.76664        1.10352        4.94240
F          2.73987        2.06500        5.31996
F          3.54271       -0.15771        5.63569
N          3.72636        0.87414        3.41933
C          2.72442        0.42749        2.73288
C          1.38835        0.03464        3.33023
H          0.34574       -0.74351       -0.64525
H          0.24650        0.39626        0.72719
H          0.73732       -1.34745        0.98988
H          2.25487        0.75608       -0.64701
H          2.77234       -0.95520       -0.39187
H          4.56196        0.50003       -0.98591
H          6.03836        0.18699       -0.04677
H          5.43886        1.89493       -0.31453
H          7.12508        1.74780        1.08837
H          8.08737        1.34229        2.51526
H          7.47437        3.02160        2.26381
H          8.19238        2.68286        4.70991
H          1.34053        0.16526        4.42699
H          1.19347       -1.03789        3.13601
H          0.58219        0.66206        2.90523
