126

C          0.77773       -0.34576       -0.23425
C          2.30198       -0.40637       -0.22812
C          2.85139        0.65065        0.71903
C          4.38259        0.66269        0.86567
C          4.71125        1.74831        1.89976
C          6.17164        1.99351        2.23172
N          6.58598        3.25719        2.97667
C          5.69667        4.02080        3.89679
C          4.24493        4.09186        3.48854
C          3.30703        5.00616        4.26300
C          1.88773        4.59609        3.83917
C          0.77802        5.38772        4.50549
C         -0.57296        4.84313        4.05864
C          7.97909        3.43943        3.15283
C          8.92301        3.34524        2.20282
C          8.67761        3.19856        0.81020
N          8.46234        3.07275       -0.32625
C         10.22412        3.39291        2.85926
C         10.11225        3.68299        4.24287
C         11.25686        3.91690        5.08817
C         11.12820        4.29867        6.48038
C         11.51037        5.46790        7.09678
C         11.33101        5.40634        8.50653
C         10.79948        4.19944        8.92967
C         10.45162        3.75312       10.23627
C          9.69570        4.44202       11.08987
C          9.13372        5.71390       10.77775
N          8.68493        6.75730       10.51377
C          9.38562        3.87755       12.34865
N          9.14305        3.40483       13.37612
S         10.55737        3.14438        7.59883
C         12.53636        3.73054        4.54721
C         12.50049        3.15633        3.22914
C         11.44900        3.15854        2.30065
C         11.66586        3.26378        0.83390
C         11.49769        4.40814        0.07277
C         11.75941        4.21182       -1.31512
C         12.20707        2.93681       -1.61328
C         12.69469        2.34808       -2.83013
C         13.03858        2.98605       -3.97002
C         12.95073        4.38931       -4.18856
N         12.90611        5.53615       -4.37438
C         13.60767        2.22367       -5.03468
N         14.09589        1.60142       -5.88548
S         12.10141        1.94730       -0.17138
C         13.85899        2.87895        2.88672
C         14.28498        4.25805        3.34386
N         15.35184        4.75850        2.00598
C         17.07752        4.58663        1.71618
C         18.25555        4.90240        2.64642
C         19.76135        5.03054        2.87290
C         19.76386        5.03339        4.45091
C         20.97836        5.25671        5.32197
C         20.46987        5.28094        6.77769
C         14.88081        4.53266        0.41364
C         16.04815        4.63493       -0.73334
C         15.93112        4.22283       -2.22889
C         17.35506        4.21070       -2.91492
C         17.36176        3.92355       -4.43025
C         18.76632        3.95966       -5.04968
C         14.03298        4.34300        5.04833
C         15.43591        4.45760        4.47469
N         16.59975        4.55267        3.99881
C          8.62515        3.73114        4.53707
H          0.36113       -1.10546       -0.90110
H          0.42598        0.63553       -0.57166
H          0.37605       -0.51788        0.77070
H          2.67863       -0.23927       -1.24297
H          2.62494       -1.40347        0.08918
H          2.40281        0.50154        1.70990
H          2.51892        1.63877        0.37299
H          4.85249        0.89150       -0.09800
H          4.74946       -0.31335        1.19973
H          4.20167        1.44847        2.81891
H          4.27755        2.65934        1.48664
H          6.66517        1.99132        1.25960
H          6.56990        1.12874        2.77578
H          6.06888        5.05461        3.92092
H          5.78760        3.62021        4.91152
H          3.83111        3.09985        3.64602
H          4.17403        4.37743        2.43374
H          3.50334        6.05454        4.01565
H          3.43991        4.87305        5.34134
H          1.74094        3.53164        4.07077
H          1.79474        4.68874        2.74844
H          0.85860        6.44572        4.23619
H          0.86235        5.30901        5.59445
H         -0.68364        4.91513        2.97100
H         -1.38761        5.40275        4.52475
H         -0.67992        3.78832        4.33637
H         11.92732        6.31787        6.56845
H         11.59323        6.22152        9.17174
H         10.80643        2.74603       10.51032
H         11.18239        5.35966        0.48715
H         11.64162        5.01541       -2.03164
H         12.84530        1.26710       -2.80244
H         14.29206        2.08420        3.50791
H         14.05880        2.59409        1.86660
H         17.26861        5.34229        0.96073
H         17.17781        3.54888        1.37819
H         18.22915        3.92737        3.15754
H         17.92201        5.84981        3.09358
H         20.16531        5.95964        2.46532
H         20.32020        4.17442        2.48217
H         19.34657        4.06894        4.78301
H         19.03832        5.79578        4.77296
H         21.46009        6.20797        5.08549
H         21.69914        4.44402        5.20014
H         19.74233        6.09049        6.92577
H         21.28350        5.42462        7.49053
H         19.95409        4.34505        7.03202
H         14.11969        5.28600        0.21363
H         14.50089        3.52465        0.31284
H         16.86273        3.96829       -0.44416
H         16.41192        5.66995       -0.74320
H         15.29440        4.93192       -2.75887
H         15.51222        3.21632       -2.31048
H         17.98446        3.45349       -2.42669
H         17.84724        5.17692       -2.74536
H         16.74321        4.66305       -4.94935
H         16.93051        2.93585       -4.62581
H         19.25106        4.93076       -4.90183
H         18.71246        3.78425       -6.13194
H         19.41737        3.18611       -4.62785
H          8.33567        4.72038        4.90181
H          8.35112        2.94645        5.24835
