90

C          1.12918       -0.61679        0.13778
C          2.63457       -0.86459        0.22576
C          3.23307       -0.37744        1.55355
C          4.77589       -0.36431        1.57090
C          5.31509        0.40123        2.79757
C          6.84190        0.58316        2.82804
O          7.16035        1.68777        3.70605
C          8.44818        2.16916        3.66684
C          9.09991        2.37419        4.87693
C         10.45579        2.76550        4.89837
C         11.11159        2.97994        6.19082
C         11.94206        4.00730        6.47686
C         12.36593        5.14013        5.57057
O         11.72676        5.72126        4.71860
C         13.77039        5.39903        5.93932
C         14.68690        6.10715        5.17554
C         16.03152        5.97280        5.51643
C         16.41150        5.15349        6.59547
C         15.45501        4.50700        7.39676
C         14.11370        4.65777        7.07378
C         12.86527        4.04509        7.60468
C         12.53046        3.81024        8.89212
C         11.21329        3.39972        9.27891
N         10.13968        3.06438        9.56511
C         13.43486        4.07144        9.95154
N         14.17608        4.29714       10.82145
C         11.18736        2.87529        3.70118
O         12.55361        2.91373        3.79505
C         13.32354        3.18752        2.62099
C         14.79136        3.16018        3.04666
C         15.75062        3.61242        1.94985
C         17.17231        3.77672        2.49837
C         18.17105        4.11167        1.39243
C         19.57396        4.30597        1.94790
C         10.48855        2.88946        2.51629
C          9.12347        2.56139        2.51151
C          8.52691        2.54251        1.20407
C          7.44536        3.19935        0.77479
C          6.52621        3.98378        1.63651
O          6.76548        4.67687        2.59939
C          5.20713        3.70302        1.07208
C          4.03473        3.84570        1.80779
C          2.87621        3.34840        1.24260
C          2.92993        2.76382       -0.03729
C          4.14327        2.61582       -0.76338
C          5.32137        3.07675       -0.20172
C          6.78933        2.93389       -0.52671
C          7.57622        2.74394       -1.64086
C          9.04223        3.08358       -1.42669
N         10.25841        3.36533       -1.24901
C          7.00807        2.68327       -3.04938
N          6.53674        2.63293       -4.21786
H          0.70510       -1.14546       -0.72294
H          0.90576        0.44587        0.00341
H          0.60803       -0.95636        1.03764
H          3.11631       -0.36573       -0.62293
H          2.82256       -1.93794        0.11606
H          2.87025       -1.01720        2.36637
H          2.85654        0.62555        1.76868
H          5.14662        0.10530        0.65213
H          5.15202       -1.39365        1.57403
H          5.00410       -0.10581        3.71683
H          4.84511        1.38770        2.83331
H          7.17863        0.73536        1.80472
H          7.33299       -0.32173        3.19923
H          8.55623        2.21589        5.80441
H         10.96414        2.15382        6.88086
H         14.37964        6.65063        4.28666
H         16.79592        6.44632        4.90145
H         17.47357        4.99335        6.78847
H         15.78672        3.85090        8.19584
H         13.06197        4.17811        2.23134
H         13.15385        2.42105        1.85623
H         15.05390        2.15126        3.38856
H         14.91638        3.79154        3.92564
H         15.41568        4.56920        1.53141
H         15.74402        2.87833        1.13649
H         17.48334        2.85859        3.01112
H         17.18393        4.57823        3.24500
H         17.86125        5.02552        0.87249
H         18.18592        3.30363        0.65249
H         19.60871        5.15454        2.63897
H         20.27942        4.50251        1.13446
H         19.91320        3.41348        2.48346
H         10.98371        3.13041        1.57980
H          9.04034        1.81783        0.57914
H          4.05279        4.24341        2.82079
H          1.94816        3.36004        1.81511
H          2.00400        2.35876       -0.44353
H          4.11797        2.07809       -1.70509
