114

C          1.25045       -0.28308        0.39492
C          2.78535       -0.27439        0.36820
C          3.22787        0.36872       -0.94280
C          4.71601        0.49793       -1.25885
N          5.10104        0.95264       -2.64401
C          4.23444        1.72485       -3.59818
C          2.72518        1.50153       -3.49858
C          1.78711        2.07743       -4.55473
C          0.34499        1.84895       -4.07594
C          6.51137        1.17246       -2.76453
C          7.43729        0.20169       -2.33218
C          8.83686        0.40417       -2.38028
C          9.37161        1.59604       -2.86705
C         10.80073        1.83075       -2.86872
C         11.99475        2.01480       -2.85957
C         13.43668        2.19236       -2.86532
C         13.98621        3.49205       -2.89196
C         15.38552        3.70936       -2.97059
C         15.87535        5.06579       -3.06766
C         16.26865        6.20467       -3.18584
C         16.72112        7.55127       -3.38721
C         16.04894        8.62244       -2.78994
C         16.46455        9.94271       -3.03082
C         17.55583       10.19787       -3.86694
C         17.97175       11.54587       -4.13034
N         18.30139       12.64361       -4.34107
C         18.23831        9.12236       -4.45364
C         17.81845        7.80803       -4.21025
C         16.24859        2.59938       -3.00241
C         17.68024        2.72112       -3.16018
C         18.86746        2.84054       -3.35207
C         20.23859        3.13929       -3.64372
C         20.64249        4.45886       -3.61571
C         21.95841        4.81552       -3.96327
C         22.94084        3.92076       -4.41684
N         24.22975        4.29674       -4.84812
C         24.66787        5.65940       -5.30070
C         23.80221        6.86345       -4.98868
C         24.33651        8.22265       -5.42814
C         23.28782        9.27914       -5.08368
C         25.16521        3.18352       -5.23696
C         26.53226        3.61322       -5.81303
C         27.45614        2.43016       -6.12609
C         28.77392        2.90755       -6.72907
C         22.51018        2.57498       -4.35169
C         21.19205        2.18619       -3.97903
C         15.70582        1.30680       -2.94059
C         14.31445        1.09449       -2.88273
C         13.84134       -0.26412       -2.89940
C         13.46895       -1.40570       -2.97289
C         13.03475       -2.76133       -3.13455
C         13.79967       -3.81715       -2.62950
C         13.39449       -5.14168       -2.83598
C         12.22009       -5.41659       -3.54813
C         11.81392       -6.77465       -3.77750
N         11.49033       -7.87187       -3.96746
C         11.45024       -4.35796       -4.04212
C         11.85657       -3.03471       -3.83515
C          8.48037        2.55866       -3.33964
C          7.07992        2.34569       -3.29507
H          0.86930       -0.72688        1.31768
H          0.84645       -0.85573       -0.44928
H          0.85033        0.73532        0.31607
H          3.15657       -1.30113        0.44138
H          3.16336        0.29335        1.22364
H          2.80650        1.37410       -0.90695
H          2.75908       -0.23998       -1.71604
H          5.14181       -0.49927       -1.09731
H          5.16762        1.16990       -0.51809
H          4.53648        1.43284       -4.61323
H          4.40796        2.80049       -3.49524
H          2.39201        1.98939       -2.58453
H          2.52184        0.42924       -3.47712
H          1.93782        1.57751       -5.51589
H          1.95881        3.14976       -4.68873
H          0.15225        0.78337       -3.90063
H         -0.38231        2.21143       -4.80616
H          0.15953        2.37039       -3.12809
H          7.08422       -0.75736       -1.96244
H          9.49479       -0.38589       -2.02532
H         13.31511        4.35068       -2.87832
H         15.19367        8.44426       -2.14224
H         15.92151       10.76390       -2.56625
H         19.08920        9.30316       -5.10585
H         18.35403        6.98494       -4.68579
H         19.94864        5.24180       -3.32041
H         22.13399        5.86301       -3.81409
H         24.81088        5.63157       -6.38747
H         25.64427        5.86036       -4.84377
H         23.68705        6.93163       -3.90193
H         22.83577        6.73418       -5.48814
H         24.53663        8.23457       -6.50430
H         25.27279        8.44961       -4.90674
H         22.35488        9.08982       -5.62743
H         23.63676       10.28172       -5.34076
H         23.05352        9.26141       -4.01268
H         24.68472        2.55649       -5.99880
H         25.35661        2.56852       -4.34848
H         27.05014        4.27147       -5.10687
H         26.38246        4.17492       -6.74272
H         26.96958        1.74558       -6.83004
H         27.66552        1.86650       -5.21018
H         28.60611        3.43843       -7.67230
H         29.43379        2.05832       -6.93381
H         29.29764        3.58512       -6.04650
H         23.18507        1.76101       -4.59968
H         20.93777        1.12873       -3.96948
H         16.37502        0.44665       -2.96959
H         14.71846       -3.61905       -2.08261
H         14.00442       -5.95461       -2.44525
H         10.53500       -4.55411       -4.59826
H         11.25425       -2.22146       -4.23419
H          8.85605        3.49874       -3.73809
H          6.45704        3.15862       -3.65398
