98

C          1.04714        0.09090        0.01015
C          2.55324        0.09629        0.01945
C          3.07260        0.89691        1.20836
C          4.60505        0.91849        1.21646
C          5.77359        1.88094        2.07670
C          5.92211        1.73503        3.13800
C          6.37372        2.71576        3.92247
C          5.91555        3.08842        4.80004
C          6.53932        3.12402        6.01462
C          7.82212        3.47926        6.09163
C          8.53158        3.38409        5.14812
C         10.13777        3.72483        5.11893
C         11.15589        3.90472        4.09505
C         10.43059        3.48964        2.87695
C          9.06317        3.23046        2.84978
C          8.00884        2.60345        1.76023
C          7.46577        1.83588        0.93236
C         11.96096        2.97066        4.08382
C         13.10215        3.58004        3.22565
C         14.29186        3.99141        2.98018
C         14.94049        4.72796        4.60079
C         14.10701        4.93907        5.61142
C         14.53288        5.96286        7.66581
B         14.03470        5.81934        8.88007
C         14.11776        5.80143        8.91632
C         15.70482        5.05380        5.14982
C         13.79721        6.69046       10.31042
C         12.06625        6.24933       10.27185
C         11.60577        5.61493        8.96211
C         10.24632        5.22311        8.88227
C         10.05668        4.67951        7.64865
C         13.70140        7.66444       11.42346
C         12.68443        7.58135       12.36498
C         11.38064        7.26440       12.65259
C         10.89744        6.80600       13.98792
C         11.46307        7.57206       14.94809
C         12.89506        7.71554       14.12424
C         13.99917        8.49198       13.95505
C         16.00547        6.73996        8.36044
C         17.29623        6.10072        6.24024
C         18.52603        6.27939        6.05584
C         19.40067        6.02182        4.84232
C         20.77846        6.52380        5.18906
N         12.89877        7.09763       12.57465
C         14.27523        3.44255        1.52339
C          9.89143        1.78283        1.41048
B         10.06468        1.07179        2.99094
N          7.74780        2.31193        4.12503
H          0.67796       -0.47892       -0.83705
H          0.67642        1.11005       -0.06004
H          0.67639       -0.35820        0.92760
H          2.91925        0.53956       -0.90745
H          2.91936       -0.92824        0.07983
H          2.70577        0.44424        2.12070
H          2.70548        1.91223        1.13053
H          4.90792        1.33022        0.26416
H          4.93857       -0.12920        1.26708
H          7.77896        0.97186        2.83498
H          5.01399        3.25103        4.49726
H          5.96096        2.93517        6.82151
H          7.93950        3.75596        6.84094
H         10.52667        4.03511        5.75463
H         11.35086        2.36938        2.42194
H         10.63885        3.60458        1.92466
H          8.50899        3.77103        2.94480
H          9.30901        1.77209        4.52620
H          9.05002        0.10939        1.37776
H          8.40973        3.14771        0.74927
H          6.56867        0.10850        2.38903
H          6.83198        0.99075        0.73606
H          7.06763        3.02003        1.62642
H         12.69878        3.24028        2.26827
H         13.24311        4.63777        5.45644
H         17.17978        5.09847        4.01610
H         11.35468        7.12392       10.22534
H         11.76387        5.48829       11.05309
H         12.25905        4.71826        8.82087
H         11.87047        6.36554        8.17086
H          9.60645        6.07827        8.98284
H         10.02894        4.47713        9.62316
H         10.18308        5.44234        6.81743
H          9.23275        4.46638        7.65077
H         10.63862        3.71409        7.51040
H         14.82755        7.62719       11.74058
H         11.07270        6.99576       11.96501
H         10.28769        6.09216       13.94705
H         10.80382        7.78660       15.78321
H         13.54770        9.55489       16.35283
H         16.88093        6.65884        4.99508
H         17.45211        4.65220        5.82537
H         18.84295        5.70537        6.88165
H         18.42252        7.30814        6.24010
H         19.03073        6.55728        3.96976
H         19.45180        4.95994        4.60838
H         20.73525        7.58596        5.42007
H         21.45507        6.36954        4.35667
H         21.15623        5.99002        6.05824
H         16.16202        3.82706        1.31814
