99

C          0.88309        0.02280        0.01831
C          2.40365        0.04611       -0.01067
C          2.92554       -1.15152       -0.79001
C          4.45896       -1.23358       -0.76830
N          4.95620       -2.42262       -1.45075
C          4.64916       -3.68399       -1.04375
C          3.96248       -4.01802        0.07310
C          3.58498       -5.32027        0.12799
C          3.95334       -6.35875       -0.72570
C          3.53727       -7.77109       -0.47822
C          2.77323       -8.22459        0.55284
C          2.25178       -7.17978        1.52591
N          1.81920       -6.31302        2.33315
C          2.45522       -9.65929        0.73470
C          3.43688      -10.64736        0.53038
C          3.10895      -12.00686        0.54526
C          1.79853      -12.39605        0.83161
N          1.40216      -13.81503        0.74016
O          2.28129      -14.61792        0.35874
O          0.25024      -14.11070        1.01302
C          0.83103      -11.43309        1.15778
C          1.16062      -10.07180        1.08926
C          4.75825       -5.98690       -1.80715
C          5.08119       -4.61177       -1.98271
C          5.81086       -3.84882       -2.93844
C          6.55200       -4.19551       -4.07896
C          7.16532       -3.17677       -4.82377
C          8.06709       -3.57444       -5.97006
N          8.70724       -2.44589       -6.63839
C          8.47384       -2.03250       -7.93404
C          7.54803       -2.70280       -8.82402
C          6.20945       -2.74008       -8.46903
C          5.32126       -3.50836       -9.19395
C          5.75305       -4.21656      -10.33253
C          7.09371       -4.15191      -10.73015
C          7.99839       -3.38286       -9.96112
C          7.23905       -4.95088      -11.90497
C          8.33569       -5.26042      -12.73956
C          8.14936       -6.07967      -13.85706
C          6.89151       -6.59436      -14.14999
C          5.79096       -6.30968      -13.33479
C          5.98646       -5.48420      -12.21202
N          5.09622       -5.03594      -11.24305
C          3.67369       -5.40490      -11.26240
C          2.85862       -4.82567      -10.12126
C          1.38310       -5.14788      -10.05478
C          0.80671       -4.44559       -8.82471
N          9.15265       -0.93874       -8.21029
C          9.81042       -0.60991       -7.05555
C         10.61175        0.50388       -6.77663
C         11.13822        0.64984       -5.48746
C         10.87013       -0.29100       -4.49277
C         10.09753       -1.42258       -4.76043
C          9.58165       -1.55026       -6.05833
C          6.95754       -1.83858       -4.45393
C          6.28428       -1.47464       -3.30599
C          5.71142       -2.49934       -2.57572
H          0.49602        0.89865        0.54492
H          0.51641       -0.87330        0.53213
H          0.47555        0.01913       -0.99770
H          2.78285        0.02106        1.01819
H          2.75743        0.97187       -0.47438
H          2.57172       -1.12649       -1.82675
H          2.46095       -2.04078       -0.35344
H          4.84289       -1.27604        0.25915
H          4.88820       -0.34907       -1.24212
H          3.60770       -3.32243        0.82491
H          2.92065       -5.35765        0.94591
H          3.91742       -8.48225       -1.21155
H          4.47139      -10.36818        0.33517
H          3.87660      -12.74299        0.31215
H         -0.17961      -11.72188        1.43279
H          0.37503       -9.34271        1.28264
H          5.10546       -6.72231       -2.52734
H          6.65286       -5.24158       -4.35727
H          7.47880       -4.15158       -6.68855
H          8.87443       -4.22513       -5.61775
H          5.84136       -2.21235       -7.59085
H          4.31468       -3.51644       -8.80555
H          9.04886       -3.33590      -10.23533
H          9.32045       -4.85728      -12.52076
H          8.99396       -6.30951      -14.50215
H          6.76081       -7.22515      -15.02656
H          4.81496       -6.71714      -13.57799
H          3.63460       -6.49980      -11.23382
H          3.27593       -5.05843      -12.22291
H          2.92601       -3.73289      -10.18668
H          3.29544       -5.18675       -9.18171
H          1.23678       -6.22823       -9.97223
H          0.87990       -4.79215      -10.95817
H          1.30530       -4.78545       -7.90853
H         -0.26204       -4.64443       -8.72812
H          0.95114       -3.35987       -8.88804
H         10.79486        1.24124       -7.54909
H         11.75582        1.51395       -5.25907
H         11.25595       -0.13852       -3.48735
H          9.84979       -2.12582       -3.97064
H          7.35915       -1.01009       -5.02835
H          6.21982       -0.43730       -3.00290
