24

C          1.12098       -0.11901        0.29312
C          2.42405       -0.43402        0.45674
C          3.11361       -0.81098       -0.84242
N          4.20843       -1.49280       -0.71854
C          4.87604       -1.93962       -1.85370
C          6.04774       -2.68431       -1.68832
C          6.71208       -3.19326       -2.79667
C          6.18360       -2.95110       -4.05945
C          5.02333       -2.19743       -4.18105
N          4.40107       -1.70217       -3.08506
C          3.18920       -0.89806       -3.25915
N          2.55555       -0.43434       -2.05064
C          1.38475        0.31584       -2.06027
C          0.66973        0.50841       -0.94200
H          0.40943       -0.90196        0.58269
H          3.05012        0.34427        0.90461
H          6.42831       -2.87552       -0.68781
H          7.61612       -3.78036       -2.67645
H          6.68217       -3.34690       -4.94619
H          4.58479       -1.98286       -5.15134
H          2.48747       -1.53007       -3.81926
H          3.47348       -0.04512       -3.88602
H          1.07891        0.73761       -3.01238
H         -0.24247        1.09417       -0.92156
