38

C          1.30977        0.13208        0.41871
N          2.60755       -0.12487       -0.19411
C          3.35269       -1.30854        0.21131
C          3.14164        0.77882       -1.18597
C          4.28878        0.44824       -1.94628
C          4.78737        1.32512       -2.91989
C          4.17389        2.56633       -3.14104
C          4.69382        3.50803       -4.16552
N          4.25583        4.72372       -4.18243
C          4.71170        5.65567       -5.13559
S          4.23001        7.27256       -5.19894
C          5.18664        7.55570       -6.55401
C          5.33841        8.74697       -7.25653
C          6.18458        8.75407       -8.37424
C          6.85812        7.58031       -8.76470
C          6.69817        6.38808       -8.03650
C          5.85063        6.38852       -6.91919
N          5.58635        5.32470       -6.10753
B          6.15242        3.88979       -6.18361
F          5.77994        3.28331       -7.45309
F          7.60231        3.93298       -6.07671
O          5.61375        3.07885       -5.08234
C          3.04655        2.90840       -2.37875
C          2.53129        2.02777       -1.43070
H          1.01952       -0.65902        1.14110
H          0.52777        0.16356       -0.37076
H          1.32522        1.09471        0.97016
H          2.82237       -1.88992        0.99489
H          4.33339       -1.00076        0.63355
H          3.50919       -1.98278       -0.65515
H          4.80399       -0.49161       -1.80827
H          5.66121        1.03274       -3.48903
H          4.81565        9.64366       -6.94934
H          6.31777        9.66691       -8.94008
H          7.50451        7.59776       -9.63233
H          7.22091        5.49312       -8.34605
H          2.54385        3.85607       -2.52641
H          1.65312        2.34537       -0.88759
