53

C          1.03208       -0.09098       -0.06179
N          2.47358        0.12628       -0.09864
C          3.23238       -0.51189       -1.16687
C          3.15706        0.42321        1.08091
C          2.64867        0.09747        2.34313
C          3.33235        0.42608        3.51878
C          4.56301        1.08948        3.48118
C          5.32540        1.40937        4.71530
C          4.82893        1.03964        6.07500
C          4.76684       -0.33943        6.36427
C          4.27780       -0.80072        7.58462
C          3.83792        0.10026        8.54985
N          3.46477       -0.35911        9.82008
C          3.98958        1.46836        8.30681
C          4.44270        1.97142        7.06528
C          4.55061        3.48064        6.90384
O          4.75356        4.14963        7.96753
O          4.48510        3.98214        5.73857
C          6.50429        2.06640        4.55939
C          7.35656        2.39198        5.69821
C          8.39520        3.22703        5.60407
C          8.80115        3.81575        4.29238
N          9.82126        4.63385        4.18386
C         10.35290        5.17394        2.89222
C         10.63855        5.12644        5.34788
C          7.99526        3.34790        3.10949
C          6.93838        2.52590        3.24094
O          6.25011        2.13032        2.09774
C          5.07280        1.43609        2.23547
C          4.38745        1.10149        1.05518
H          0.63721       -0.30108       -1.06177
H          0.52760        0.81626        0.29028
H          0.74903       -0.93313        0.57774
H          2.57195       -0.89249       -1.95447
H          3.81550       -1.36120       -0.79297
H          3.90819        0.20480       -1.64398
H          1.71309       -0.44118        2.45410
H          2.87122        0.15470        4.46501
H          5.09192       -1.06592        5.62191
H          4.24433       -1.86912        7.77349
H          3.00747       -1.26386        9.79522
H          2.92304        0.33105       10.33287
H          3.74300        2.18528        9.08996
H          7.10681        2.00385        6.68257
H          8.89867        3.46192        6.52902
H          9.77069        4.86416        2.03008
H         11.37667        4.80975        2.77849
H         10.35038        6.26649        2.95376
H         10.23705        4.83157        6.31269
H         10.66389        6.21863        5.30376
H         11.64643        4.72055        5.23520
H          8.22135        3.68012        2.10587
H          4.80508        1.42354        0.10644
