39

C          0.92500        0.04226        0.04199
N          2.37752        0.11152        0.01995
C          3.15715       -0.97952        0.58211
C          3.00428        1.15879       -0.63877
C          2.55128        2.47355       -0.49224
C          3.19526        3.53776       -1.12322
C          4.30794        3.30193       -1.93882
C          4.98697        4.34488       -2.57362
C          6.09882        4.06619       -3.37312
C          6.82817        5.07491       -4.00244
C          7.94071        4.75804       -4.78913
C          8.37297        3.43781       -4.98864
N          9.47505        3.12283       -5.77218
C          9.91818        1.75043       -6.02701
C         10.35776        4.12537       -6.37047
C          7.59520        2.45771       -4.33607
C          6.48711        2.73138       -3.53077
N          5.83303        1.72137       -2.92350
C          4.77651        1.99302       -2.13171
C          4.12149        0.95732       -1.46905
H          0.57126       -0.88688        0.50150
H          0.52296        0.07225       -0.97711
H          0.49265        0.86626        0.61811
H          2.52145       -1.69096        1.12065
H          3.88091       -0.58969        1.30711
H          3.69193       -1.54388       -0.18734
H          1.71292        2.69471        0.16215
H          2.82904        4.54827       -0.96011
H          4.65789        5.37101       -2.43794
H          6.54343        6.12228       -3.88814
H          8.45097        5.60040       -5.24152
H          9.28958        0.96022       -5.61759
H         10.92473        1.60443       -5.61848
H          9.96590        1.57743       -7.10819
H         10.09586        5.16619       -6.18163
H         10.37888        3.99380       -7.45831
H         11.37870        3.98891       -5.99532
H          7.83424        1.40411       -4.42087
H          4.49178       -0.04909       -1.64505
