49

C          1.41057       -0.62659        0.17343
O          2.56463       -0.68493       -0.58269
C          3.18632        0.38191       -1.15233
C          4.28825        0.15001       -1.98728
C          4.94465        1.21359       -2.62942
O          6.01902        0.93001       -3.40955
C          6.83795        1.86114       -4.01430
C          4.47547        2.52828       -2.43731
C          3.39190        2.76503       -1.58716
C          2.86747        4.11428       -1.37036
O          2.23879        4.66035       -2.27976
B          1.54125        5.94318       -2.15986
F          0.14332        5.75588       -2.49801
F          2.13206        6.90284       -3.08800
O          1.64014        6.46620       -0.80212
C          2.41358        5.91835        0.17141
C          2.56444        6.68441        1.42006
C          3.83153        6.89739        1.98956
C          3.97702        7.77810        3.06566
C          2.85446        8.43017        3.59666
C          2.99456        9.38480        4.61189
C          1.87289       10.07159        5.08648
O          2.04683       11.08224        5.96296
C          1.67760       12.36908        5.62028
C          0.59342        9.74582        4.60883
C          0.44219        8.78922        3.60792
C          1.57013        8.15889        3.06874
C          1.43830        7.29923        1.97670
C          3.04292        4.75955       -0.04820
C          2.75805        1.69882       -0.94079
H          1.12686       -1.65118        0.48858
H          0.57838       -0.20252       -0.43062
H          1.57143       -0.00730        1.08157
H          4.63211       -0.86298       -2.14807
H          7.64374        1.33390       -4.56436
H          7.30585        2.51163       -3.24385
H          6.25983        2.47903       -4.73352
H          4.95213        3.36957       -2.92381
H          4.71603        6.44524        1.55697
H          4.96840        7.98060        3.45402
H          3.97655        9.64329        4.99115
H          1.88051       13.05709        6.46325
H          0.60134       12.42541        5.35151
H          2.27938       12.69982        4.74280
H         -0.28325       10.25280        4.99075
H         -0.54967        8.57038        3.22949
H          0.46118        7.12516        1.54033
H          3.66287        4.29651        0.71746
H          1.90710        1.90856       -0.30329
