58

C          1.15032       -0.09589       -0.08082
O          2.37119        0.54609       -0.09154
C          3.14321        0.79819        0.99733
C          4.25810        1.62618        0.83900
C          5.05856        1.95598        1.93485
C          4.78235        1.43011        3.21025
C          5.59753        1.85283        4.37414
S          6.14600        3.46346        4.49350
C          6.76273        3.23398        6.01360
C          6.63362        1.95803        6.45429
C          5.95841        1.11602        5.54045
Br         5.57623       -0.74222        5.81532
N          7.15477        1.79878        7.62570
C          7.60182        3.10063        8.01644
C          8.12311        3.38222        9.22959
C          8.56551        4.76712        9.68424
F          7.83948        5.12583       10.80674
F          9.90964        4.73036       10.00949
F          8.38774        5.75327        8.73973
C          8.27576        2.25057       10.16672
C          8.78275        2.36685       11.45859
C          8.79062        1.09595       11.91313
S          9.24157        0.35500       13.30486
C          8.89670       -1.21283       12.72051
C          9.24945       -2.38284       13.58850
C          9.32490       -2.17356       14.98334
C          9.75159       -3.17302       15.84807
C         10.14484       -4.41286       15.35896
O         10.62058       -5.31211       16.25886
C         11.27134       -6.49107       15.97233
C         10.05780       -4.66016       13.97068
C          9.60017       -3.65536       13.09284
C          8.37941       -1.11301       11.38349
Br         7.83875       -2.57890       10.27864
C          8.33354        0.24650       10.97992
N          7.96073        0.95044        9.87194
B          7.31164        0.53786        8.51569
F          6.00607       -0.04788        8.77950
F          8.16041       -0.42995        7.83637
C          7.34592        4.01142        6.89120
C          3.67654        0.57950        3.36584
C          2.85525        0.27603        2.27433
H          0.76723       -0.16251       -1.11966
H          0.42389        0.48679        0.52605
H          1.25157       -1.12356        0.32612
H          4.49389        2.03510       -0.13598
H          5.90121        2.61885        1.78058
H          9.11630        3.24542       11.98581
H          9.06292       -1.22268       15.42577
H          9.80839       -2.96668       16.91050
H         11.56165       -6.97663       16.92854
H         12.19854       -6.27916       15.39745
H         10.60949       -7.17673       15.40795
H         10.36133       -5.61506       13.56344
H          9.58435       -3.86529       12.03433
H          7.54187        5.06298        6.75180
H          3.40763        0.19208        4.33743
H          1.99254       -0.35458        2.43824
