92

C          0.89847        0.16105        0.95239
O          2.20699       -0.18223        0.69448
C          2.86212        0.05021       -0.46953
C          4.06810       -0.60014       -0.67575
C          4.74199       -0.47225       -1.88273
C          4.24101        0.32536       -2.95026
C          4.95616        0.24643       -4.29789
N          4.55161        0.57563       -5.48472
C          5.43842        0.02460       -6.45959
N          5.24250        0.11872       -7.74833
C          4.11046        0.86530       -8.23155
C          3.72977        1.14998       -9.55229
C          4.33309        0.79201      -10.85833
C          4.39795        1.77834      -11.84976
C          4.93304        1.52296      -13.11175
O          4.98357        2.58209      -13.97007
C          5.49969        2.63017      -15.24880
C          5.37502        0.21181      -13.42783
O          5.85392       -0.01294      -14.68733
C          6.29332       -1.19028      -15.25353
C          5.27414       -0.81210      -12.44321
O          5.62423       -2.08422      -12.76739
C          5.32510       -3.22146      -12.04709
C          4.78293       -0.49695      -11.15142
C          2.54698        1.88485       -9.46420
C          2.26276        2.04396       -8.12640
C          1.03802        2.66609       -7.55335
C          1.11128        3.64830       -6.55264
C         -0.04006        4.11134       -5.91990
C         -1.29280        3.60432       -6.26683
O         -2.37064        4.04276       -5.56742
C         -3.65183        3.54465       -5.66450
C         -1.38293        2.65346       -7.30503
C         -0.22447        2.19789       -7.94951
N          3.22517        1.44431       -7.38981
B          3.30599        1.32985       -5.86831
F          2.11895        0.62132       -5.40140
F          3.42699        2.64579       -5.27799
C          6.50715       -0.68153       -5.71345
C          7.41953       -1.84327       -5.76586
C          8.77114       -1.67216       -5.45608
C          9.47189       -2.65549       -4.74271
O         10.74976       -2.34065       -4.38644
C         11.55408       -2.96922       -3.45761
C          8.78547       -3.82557       -4.30089
O          9.41743       -4.65620       -3.42693
C          8.82819       -5.28845       -2.34379
C          7.43036       -4.02438       -4.67545
O          6.74352       -5.09656       -4.19715
C          5.36919       -5.25003       -4.20139
C          6.77650       -3.04168       -5.43024
C          6.20332       -0.47010       -4.43426
C          3.03958        1.02649       -2.69413
C          2.36038        0.88623       -1.47940
H          0.62494       -0.19890        1.96478
H          0.22995       -0.33273        0.21306
H          0.76968        1.26146        0.91119
H          4.47146       -1.25230        0.08988
H          5.63144       -1.06859       -1.94880
H          4.05019        2.78195      -11.63167
H          5.40054        3.66489      -15.63726
H          4.93384        1.95381      -15.92294
H          6.57972        2.36929      -15.23943
H          6.61513       -0.98572      -16.29573
H          5.46766       -1.93192      -15.28833
H          7.16587       -1.58785      -14.69434
H          5.70300       -4.10621      -12.59940
H          4.22189       -3.32165      -11.94559
H          5.80347       -3.19193      -11.04750
H          4.69663       -1.25905      -10.38938
H          1.94870        2.24603      -10.29128
H          2.05397        4.06795       -6.25140
H          0.04712        4.85128       -5.13385
H         -4.30097        4.07907       -4.94047
H         -3.65946        2.46279       -5.40809
H         -4.05023        3.70038       -6.68787
H         -2.33810        2.24199       -7.60161
H         -0.31031        1.43595       -8.71462
H          9.24678       -0.71273       -5.62194
H         12.52338       -2.43383       -3.39866
H         11.75659       -4.01915       -3.75279
H         11.07820       -2.92539       -2.45311
H          9.61968       -5.71698       -1.69693
H          8.16305       -6.11686       -2.65025
H          8.26569       -4.54461       -1.73219
H          5.10342       -6.18985       -3.67669
H          4.98187       -5.29616       -5.24011
H          4.89141       -4.40539       -3.65454
H          5.70795       -3.11715       -5.59019
H          6.74461       -0.93916       -3.62529
H          2.56400        1.66637       -3.40055
H          1.42750        1.41544       -1.34921
