68

C          0.76671       -1.09751        0.23327
O          2.06995       -0.86494       -0.15262
C          2.72506        0.31408       -0.01817
C          3.92649        0.48179       -0.69394
C          4.59821        1.70318       -0.65927
C          4.09692        2.81529        0.06639
C          4.82266        4.15443       -0.06100
N          4.57954        5.30742        0.49322
C          5.47812        6.28277       -0.03613
N          5.47488        7.53927        0.32395
C          4.53184        7.99130        1.31744
C          4.33954        9.28614        1.83950
C          5.01737       10.57815        1.55126
C          4.95888       11.61873        2.50892
C          5.56500       12.85166        2.27124
C          6.22205       13.08113        1.06356
C          6.28723       12.06920        0.10245
C          5.69862       10.81933        0.34628
C          3.27169        9.17534        2.73027
C          2.87689        7.85830        2.74750
C          1.71300        7.31227        3.49195
C          1.83727        6.17816        4.30965
C          0.71719        5.60897        4.91354
C         -0.55318        6.15023        4.70756
O         -1.61415        5.51321        5.26661
C         -2.94152        5.80086        5.03273
C         -0.68210        7.31375        3.92088
C          0.44725        7.89593        3.32975
N          3.65449        7.14838        1.89549
B          3.52182        5.66703        1.52296
F          2.19420        5.48417        0.95776
F          3.74965        4.83056        2.68273
C          6.33230        5.58538       -1.01831
C          7.29141        5.91825       -2.08214
C          8.64812        5.57961       -1.94934
C          9.49166        5.61087       -3.06654
C          8.97981        5.95394       -4.32199
C          7.62885        6.28333       -4.46041
C          6.78624        6.26698       -3.34508
C          5.93400        4.32346       -0.99790
C          2.90494        2.59746        0.79925
C          2.22774        1.37672        0.74987
H          0.48706       -2.13355       -0.04296
H          0.08737       -0.39684       -0.30243
H          0.65424       -0.97248        1.32960
H          4.33301       -0.32933       -1.28561
H          5.50183        1.74583       -1.23830
H          4.46153       11.47901        3.45959
H          5.51779       13.63093        3.02215
H          6.67874       14.04489        0.87731
H          6.78941       12.25807       -0.83681
H          5.75151       10.05613       -0.42003
H          2.80603        9.96949        3.29842
H          2.79798        5.73030        4.49616
H          0.83655        4.72460        5.52711
H         -3.57034        5.08801        5.60486
H         -3.17072        5.67944        3.95175
H         -3.17915        6.83341        5.36226
H         -1.65028        7.76232        3.74390
H          0.32395        8.77020        2.70203
H          9.03955        5.24247       -0.99786
H         10.53170        5.32730       -2.96863
H          9.62258        5.93476       -5.19304
H          7.22473        6.51028       -5.43852
H          5.72710        6.45214       -3.47907
H          6.34542        3.58360       -1.66817
H          2.42614        3.33252        1.39739
H          1.30212        1.28094        1.30053
