50

C          0.91434       -0.61928       -0.18847
C          2.41021       -0.52783       -0.35530
O          2.93036        0.04434       -1.30613
N          3.08203       -1.17620        0.67493
C          4.48381       -1.06686        0.80333
C          5.22836       -2.22099        0.51812
C          6.62144       -2.21537        0.59631
C          7.28715       -1.05367        0.97889
C          6.55511        0.08840        1.31640
C          5.14518        0.09550        1.25789
C          4.48091        1.33660        1.78984
O          5.02744        2.10820        2.55558
O          3.27336        1.51863        1.21273
C          2.55162        2.76204        1.34115
C          1.27410        2.60637        0.49210
C          0.36300        3.83541        0.41995
C         -0.72823        3.63276       -0.63788
C          1.15283        5.11518        0.14461
C          2.36308        5.21710        1.07213
C          3.34126        4.02418        0.90189
C          3.99366        3.99183       -0.52555
C          4.77369        5.28719       -0.78502
C          4.97142        2.84852       -0.81267
H          0.43130        0.17099       -0.77675
H          0.64920       -0.47046        0.86046
H          0.55596       -1.58878       -0.52903
H          2.69780       -2.09963        0.84481
H          4.73118       -3.13334        0.18910
H          7.18568       -3.11083        0.35148
H          8.37125       -1.04049        1.02726
H          7.09433        0.98057        1.62959
H          2.25310        2.85735        2.39198
H          0.68582        1.78128        0.90517
H          1.55762        2.30305       -0.52307
H         -0.13359        3.94442        1.39342
H         -0.29992        3.54789       -1.64387
H         -1.42985        4.47367       -0.64302
H         -1.30096        2.71962       -0.44227
H          0.50256        5.98543        0.29163
H          1.47121        5.15106       -0.90419
H          2.00538        5.24453        2.11055
H          2.87168        6.17181        0.91633
H          4.15292        4.17655        1.62202
H          3.20548        3.90840       -1.28148
H          5.53596        5.43805       -0.01191
H          4.11942        6.16032       -0.80545
H          5.28229        5.24899       -1.75395
H          5.81421        2.85240       -0.11465
H          5.38532        2.93774       -1.82344
H          4.48168        1.87898       -0.79710
