53

C          0.27466       -0.81817       -0.22731
O          1.53737       -0.71528        0.31250
C          2.41462       -1.73588        0.48524
C          2.06699       -3.08994        0.29168
C          3.02524       -4.09720        0.45808
C          4.34285       -3.75748        0.78778
C          4.68908       -2.40703        1.01013
C          3.72084       -1.41170        0.85860
C          6.10074       -2.00613        1.39732
C          7.03503       -3.20206        1.65983
C          6.80368       -4.28139        0.63149
C          7.73076       -5.24605        0.51500
C          7.74007       -6.01145       -0.79819
C          7.74805       -6.66802       -1.92465
C          7.75737       -7.43342       -3.23784
C          8.11804       -6.75512       -4.40012
C          8.10327       -7.40005       -5.64117
C          8.40872       -6.66593       -6.79889
C          8.39442       -7.28082       -8.04841
C          8.08484       -8.63285       -8.15606
C          7.78016       -9.38040       -7.01762
C          7.77285       -8.78096       -5.73297
C          7.45204       -9.50088       -4.54136
C          7.16350      -10.88943       -4.54033
C          6.87997      -11.56491       -3.35329
C          6.86102      -10.88148       -2.14390
C          7.12834       -9.51609       -2.11007
C          7.43088       -8.80686       -3.29171
O          7.59143       -6.21859        1.45970
B          6.26771       -6.84399        1.69055
F          6.15866       -8.07184        0.92317
F          6.13013       -7.15704        3.10375
O          5.19179       -5.90971        1.30244
C          5.41543       -4.76495        0.89416
H         -0.19200        0.18828       -0.24313
H         -0.35712       -1.49547        0.38344
H          0.34319       -1.19089       -1.27202
H          1.06544       -3.37158       -0.00038
H          2.75233       -5.13067        0.28393
H          3.98826       -0.37341        1.01987
H          6.09785       -1.37386        2.31377
H          6.50441       -1.40470        0.55691
H          6.84636       -3.63276        2.67323
H          8.08329       -2.83193        1.65194
H          8.36792       -5.70152       -4.33834
H          8.65075       -5.61180       -6.73733
H          8.62388       -6.70715       -8.93647
H          8.07708       -9.10673       -9.12913
H          7.54536      -10.41913       -7.17974
H          7.16689      -11.48851       -5.43411
H          6.67896      -12.62901       -3.37062
H          6.64893      -11.41445       -1.22459
H          7.11984       -9.02919       -1.14823
