34

C          1.05756       -0.07373        0.01168
O          2.48384       -0.04511        0.05542
C          3.04819       -1.20334        0.51548
C          4.13713       -1.07074        1.38246
C          4.78587       -2.20507        1.88762
C          4.34952       -3.47864        1.51711
C          4.99149       -4.69607        1.98480
C          4.50723       -5.90086        1.63735
C          5.20863       -7.11315        2.10512
C          5.71251       -8.04584        1.18916
C          6.37738       -9.19014        1.63042
C          6.54898       -9.42190        2.99914
C          7.25219      -10.65578        3.49067
C          6.04994       -8.49601        3.91898
C          5.38188       -7.35073        3.47782
C          3.29393       -6.02238        0.77892
O          2.76808       -7.10108        0.52539
O          2.77894       -4.84299        0.25458
C          3.27602       -3.58786        0.64188
C          2.63067       -2.47072        0.12143
H          0.71476        0.88969       -0.37681
H          0.64738       -0.20218        1.01912
H          0.67208       -0.84455       -0.66180
H          4.47872       -0.07868        1.67009
H          5.62627       -2.07765        2.56534
H          5.88072       -4.59390        2.59966
H          5.58037       -7.89171        0.11945
H          6.75095       -9.89987        0.89985
H          7.60121      -11.27758        2.66022
H          6.57031      -11.25845        4.09906
H          8.12410      -10.37960        4.09282
H          6.16725       -8.66245        4.98673
H          4.98805       -6.65400        4.21252
H          1.83157       -2.61677       -0.59510
