56

C          0.84660        0.00457        0.01026
C          2.35333        0.11330        0.00384
C          3.07296        1.26485        0.00373
C          2.44692        2.58149        0.00266
C          3.15705        3.71986       -0.00344
C          4.66181        3.72604       -0.00275
N          5.37546        4.82579        0.02542
C          4.78504        6.21943        0.18941
C          5.38434        7.19420       -0.81771
C          6.90201        7.22960       -0.72814
C          7.44145        5.82982       -0.97056
C          6.89635        4.84396        0.05523
C          5.27299        2.35046       -0.00028
C          4.53522        1.23140        0.00826
O          5.20430        0.01848        0.03972
C          4.48658       -1.14721        0.03175
C          5.23831       -2.32359        0.04891
C          4.63676       -3.58617        0.01918
N          5.44281       -4.70767        0.02323
C          5.10187       -5.91589       -0.72491
C          6.41509       -6.53785       -1.21905
C          7.39869       -6.77832       -0.06899
C          7.60272       -5.51307        0.76625
C          6.26322       -4.93535        1.21701
C          3.24338       -3.62544       -0.03485
C          2.48321       -2.44140       -0.03048
C          3.09491       -1.17665        0.00092
H          0.32259        0.96075        0.01942
H          0.50781       -0.53635        0.90125
H          0.49751       -0.52651       -0.88224
H          1.36522        2.66391        0.00520
H          2.58909        4.64046       -0.00891
H          5.00213        6.52813        1.21773
H          3.70547        6.21040        0.05685
H          4.98625        8.19887       -0.63456
H          5.08426        6.91364       -1.83541
H          7.21415        7.58881        0.25950
H          7.30929        7.92588       -1.46919
H          8.53590        5.84427       -0.91855
H          7.17404        5.50318       -1.98405
H          7.18645        5.11951        1.07470
H          7.30764        3.86416       -0.17236
H          6.34439        2.21381        0.02215
H          6.32439       -2.25751        0.05293
H          4.47380       -5.69033       -1.59488
H          4.55726       -6.62516       -0.08899
H          6.88214       -5.85768       -1.94378
H          6.21621       -7.47861       -1.74327
H          8.36235       -7.11490       -0.46750
H          7.01671       -7.58025        0.57405
H          8.13394       -4.76487        0.16381
H          8.22964       -5.73300        1.63707
H          6.44213       -4.01782        1.78959
H          5.75305       -5.63636        1.89040
H          2.72376       -4.58102       -0.04892
H          1.40138       -2.54733       -0.05083
