30

C          2.48253        0.00160       -0.01066
C          0.98278       -0.00924        0.00828
C          0.27148       -1.21405        0.00902
C         -1.12651       -1.21234       -0.00273
C         -1.83702       -0.00519       -0.01870
C         -3.31259        0.00841       -0.05650
C         -3.99805       -0.56889        0.94526
C         -5.45116       -0.51475        0.97381
C         -6.20474       -1.13583        1.97205
C         -7.59924       -1.01640        1.97235
C         -8.24395       -0.26743        0.98530
C         -7.49817        0.35145       -0.01460
C         -6.11310        0.21005       -0.01115
O         -5.40473        0.81655       -1.06092
C         -4.02779        0.67721       -1.18253
O         -3.44039        1.10356       -2.17441
C         -1.12188        1.20003       -0.00565
C          0.27558        1.19759        0.00696
H          2.89098       -1.01420        0.00194
H          2.86862        0.53017        0.86658
H          2.84339        0.49671       -0.91813
H          0.79949       -2.16451        0.00634
H         -1.65337       -2.16379       -0.01846
H         -3.49346       -1.05562        1.77427
H         -5.72240       -1.71374        2.75646
H         -8.18528       -1.50512        2.74741
H         -9.32658       -0.16937        0.99348
H         -7.98754        0.93331       -0.79001
H         -1.64499        2.15411       -0.01900
H          0.80887        2.14621        0.00270
