52

C          2.30640        0.16195       -0.89926
C          0.80301        0.54704       -0.90493
C         -0.21432        0.08427       -1.73863
C         -1.54485        0.34394       -1.36296
C         -1.83119        1.06465       -0.17961
C         -0.79227        1.51383        0.65382
C          0.50174        1.21022        0.26641
C          1.77127        1.26521        0.96580
C          2.45886        2.08047        0.78108
C          2.61227        3.48232        0.46622
C          3.87502        3.50171        0.21531
C          4.34801        2.23127        0.23563
O          5.65879        2.21447        0.00436
C          5.99627        3.52221       -0.13015
C          7.26196        4.11271       -0.29122
C          7.34535        5.53085       -0.34506
C          6.18439        6.33316       -0.25867
C          4.92815        5.73637       -0.10237
C          4.88613        4.34739       -0.03093
N          3.42739        1.32585        0.53774
B          1.96950       -1.06273        1.14329
F          1.61889       -1.17744        2.57098
F          0.79510       -1.53426        0.39499
N          2.83706       -1.75477        0.88849
C          3.54667       -0.89666        0.61678
C          4.82208       -1.55794        0.30181
C          4.52188       -2.97597        0.36132
C          4.75055       -4.36677        0.23942
C          5.82040       -5.18202       -0.14946
C          5.60468       -6.58823       -0.19472
C          4.35049       -7.15213        0.13680
C          3.29779       -6.33201        0.53205
C          3.52726       -4.96926        0.57824
O          2.63627       -4.08478        0.90966
C          3.26907       -2.96114        0.76218
H          2.39859       -0.79670       -1.48115
H          3.09139        0.32988        1.94950
H          2.81358        0.84531       -1.63155
H          0.01097       -0.52794       -2.60360
H         -2.35462       -0.05246       -1.96075
H         -2.85789        1.22343        0.11776
H         -0.99169        1.99736        1.60002
H          1.91427        4.30642        0.52242
H          8.16214        3.51834       -0.34303
H          8.30647        6.02175       -0.44160
H          6.25911        7.41563       -0.29185
H          4.02983        6.33640       -0.00678
H          5.75437       -1.09954       -0.00269
H          6.77851       -4.76833       -0.42204
H          6.39854       -7.25631       -0.49656
H          4.18485       -8.22228        0.08643
H          2.32180       -6.73588        0.78410
