72

C          2.18237        0.02451       -0.00398
N          0.73666        0.00248        0.01377
C         -0.11485        1.09440       -0.00625
C          0.29893        2.50368       -0.00709
C         -0.12828        3.36295        1.01133
C          0.27032        4.71009        1.03080
C          1.09104        5.22793        0.01961
C          1.50990        6.63745        0.06080
N          2.15648        7.20009        1.06829
C          2.33618        8.51655        0.72245
C          3.07694        9.47825        1.52355
C          2.53411       10.73595        1.82687
C          3.32422       11.72622        2.41384
C          4.65685       11.45981        2.72144
C          5.19116       10.19583        2.46922
C          4.40191        9.20471        1.87879
C          1.79166        8.78915       -0.52495
C          1.77487       10.04221       -1.28240
C          2.97542       10.69547       -1.59255
C          2.96489       11.95759       -2.18716
C          1.75229       12.56951       -2.49671
C          0.55120       11.92113       -2.21060
C          0.56160       10.66704       -1.59802
N          1.27753        7.57432       -0.93702
C          0.61779        7.30663       -2.19472
C          1.51674        4.36646       -0.99858
C          1.11104        3.02470       -1.02275
N         -1.37351        0.68653       -0.00560
C         -1.33476       -0.68537        0.02387
C         -2.51583       -1.53340        0.00822
C         -2.71013       -2.50873        0.99595
C         -3.77093       -3.41387        0.90113
C         -4.65019       -3.34050       -0.17675
C         -4.48331       -2.35013       -1.14542
C         -3.42282       -1.44581       -1.05287
C         -0.02765       -1.15265        0.03925
C          0.47819       -2.52630        0.05129
C          0.11342       -3.42631       -0.96082
C          0.48595       -4.76988       -0.88438
C          1.23664       -5.22355        0.19759
C          1.61829       -4.33829        1.20485
C          1.23133       -2.99481        1.13334
H          2.56139        1.04534        0.02928
H          2.52046       -0.46307       -0.92238
H          2.55736       -0.50418        0.87481
H         -0.77194        2.98686        1.80539
H         -0.06205        5.35530        1.84273
H          1.50403       10.96682        1.56537
H          2.90490       12.71032        2.60593
H          5.27998       12.23876        3.15314
H          6.23012        9.98823        2.71056
H          4.83373        8.23179        1.65461
H          3.93056       10.24356       -1.32879
H          3.90250       12.46969       -2.38671
H          1.74312       13.55857       -2.94703
H         -0.39442       12.40351       -2.44169
H         -0.38261       10.19489       -1.33735
H          0.55061        8.21096       -2.80013
H         -0.38790        6.93273       -1.98836
H          1.20345        6.57242       -2.75108
H          2.18581        4.72421       -1.77772
H          1.43991        2.38890       -1.84088
H         -2.01805       -2.58844        1.83047
H         -3.89546       -4.18141        1.65817
H         -5.46463       -4.05406       -0.26134
H         -5.16933       -2.29702       -1.98955
H         -3.28543       -0.69160       -1.82476
H         -0.49744       -3.09325       -1.79722
H          0.16817       -5.46347       -1.65781
H          1.51185       -6.27315        0.26550
H          2.18974       -4.69243        2.05400
H          1.49112       -2.33033        1.95458
