63

F          3.19095       -1.85324        0.48331
B          4.31166       -1.16528        1.20948
F          5.02879       -0.58164        0.08361
N          3.46235       -0.01126        1.94549
C          2.99331       -0.65677        2.99873
C          3.09692        0.20447        3.99469
C          3.95242       -0.18167        5.03584
C          3.57751       -0.44403        6.28577
C          4.63179       -0.95255        7.01135
C          5.81493       -0.97179        6.29836
S          5.58619       -0.48311        4.74376
C          3.07643        1.45557        3.50622
C          2.99832        1.33725        2.14081
C          2.53803        2.70456        1.46884
C          1.67278        2.83364        0.32807
C          1.07723        4.08798       -0.02383
C          1.30564        5.23730        0.73476
C          2.09696        5.14936        1.86413
C          2.68161        3.92063        2.23718
C          3.49604        3.90154        3.48443
C          3.17946        2.68693        4.33772
C          2.85748       -2.16698        3.07516
C          3.91353       -2.91935        2.70621
C          3.87913       -4.31211        2.72928
C          3.69716       -5.01047        1.50364
C          4.27502       -4.56794        0.31206
C          3.98820       -5.41508       -0.72450
C          3.22818       -6.50379       -0.31516
S          2.89034       -6.44194        1.32346
C          4.96937       -4.62591        3.34061
C          5.53099       -6.07524        3.49820
C          7.04922       -6.23465        3.32971
C          7.73704       -5.24373        4.17174
C          8.84054       -5.83264        4.91913
C          9.37802       -5.24452        6.03170
C          8.66623       -4.18286        6.51449
C          7.57064       -3.59387        5.76306
C          7.13762       -3.90296        4.36925
C          5.78284       -3.36372        3.37529
N          5.15848       -2.37155        2.42704
H          2.57030       -0.26562        6.59925
H          4.54276       -1.25903        8.03113
H          6.76708       -1.20279        6.68071
H          1.36915        1.98041       -0.25755
H          0.40064        4.18794       -0.87041
H          0.85453        6.19703        0.47133
H          2.25057        6.04759        2.46161
H          3.39313        4.82218        4.10428
H          4.54706        3.83253        3.13967
H          2.22514        2.76147        4.88661
H          4.02554        2.58341        5.05585
H          1.88262       -2.64754        3.12771
H          4.88976       -3.67279        0.18887
H          4.33036       -5.23126       -1.73149
H          2.88550       -7.29520       -0.93666
H          5.08828       -6.82146        2.81916
H          5.21983       -6.42270        4.51667
H          7.44691       -6.18739        2.31537
H          7.26810       -7.27923        3.71620
H          9.25863       -6.82012        4.70667
H         10.20350       -5.70900        6.60211
H          8.94633       -3.89295        7.53660
H          7.04923       -3.03395        6.44668
