58

F          2.17878       -0.07228        0.19688
C          0.83764       -0.01492        0.22151
C          0.13361       -1.22114        0.22897
C         -1.26578       -1.22866        0.20694
C         -2.01331       -2.48885        0.07184
C         -1.89117       -3.54171        0.99405
C         -2.58238       -4.75424        0.81293
C         -3.40182       -4.94105       -0.30554
C         -4.12466       -6.18183       -0.59105
N         -4.45232       -6.59342       -1.80336
C         -5.23047       -7.70490       -1.63621
C         -5.86767       -8.49666       -2.60087
C         -6.66231       -9.56445       -2.17135
C         -6.80784       -9.84102       -0.80934
C         -6.16211       -9.06974        0.16798
C         -5.38005       -8.00587       -0.28895
N         -4.63583       -7.04517        0.35344
C         -3.52341       -3.89042       -1.22551
C         -2.84746       -2.68478       -1.03719
C         -1.92791        0.01080        0.22294
C         -1.21511        1.21939        0.22341
C          0.18702        1.22829        0.20059
C          0.93542        2.48773        0.05593
C          0.81759        3.54867        0.97023
C          1.52027        4.75391        0.78356
C          2.34584        4.92593       -0.33314
C          3.08934        6.15363       -0.61859
N          3.41965        6.56186       -1.83169
C          4.22885        7.65092       -1.66620
C          4.88552        8.42666       -2.63209
C          5.70906        9.47146       -2.20301
C          5.86514        9.74395       -0.84212
C          5.20181        8.98769        0.13713
C          4.39179        7.94555       -0.31878
N          3.62603        7.00149        0.32561
C          2.45803        3.87085       -1.24697
C          1.77177        2.67252       -1.05324
H          0.69727       -2.14958        0.19643
H         -1.24495       -3.42786        1.86265
H         -2.43689       -5.54890        1.53961
H         -5.75281       -8.26519       -3.65383
H         -7.17543      -10.17700       -2.90886
H         -7.43999      -10.67242       -0.50288
H         -6.28169       -9.28855        1.22311
H         -4.54702       -6.93940        1.35223
H         -4.14637       -4.01653       -2.10908
H         -2.95675       -1.90622       -1.78913
H         -3.01642        0.04533        0.20077
H         -1.76904        2.15586        0.18657
H          0.17240        3.44438        1.84047
H          1.38494        5.55328        1.50671
H          4.76247        8.19713       -3.68443
H          6.23855       10.06962       -2.94227
H          6.52099       10.55666       -0.53607
H          5.33146        9.20184        1.19183
H          3.54324        6.89197        1.32441
H          3.08851        3.98309       -2.12789
H          1.88723        1.88259       -1.79449
