68

N         -3.80277       -0.25327        0.91399
C         -2.70415       -0.19086        0.52777
C         -1.38202       -0.11134       -0.02094
N         -0.70968       -1.33389        0.07641
C          0.51266       -1.43463       -0.49155
N          1.37060       -2.47770       -0.14445
C          2.65382       -2.23110        0.49216
C          3.26764       -0.91841        0.91428
C          4.60706       -0.72232        0.47569
C          5.38316        0.35115        0.89997
C          4.83544        1.27252        1.77415
C          3.52876        1.09182        2.24455
C          2.76036       -0.01468        1.84484
Cl         1.21367       -0.20397        2.57532
C          0.84564       -3.85512       -0.06185
C          1.71790       -5.15884        0.00830
C          0.89220       -6.31081        0.18620
C          1.38585       -7.61915        0.30985
C          2.74585       -7.85489        0.30494
C          3.58863       -6.77763        0.11642
C          3.10097       -5.45976       -0.08442
Cl         4.42214       -4.44388       -0.52182
C          0.86727       -0.40190       -1.36333
C          2.02083       -0.49824       -2.20050
N          2.96435       -0.59873       -2.88642
N          0.19293        0.79923       -1.45388
C         -0.85740        1.04558       -0.64445
N         -1.27728        2.38366       -0.56799
C         -0.32664        3.46499       -0.15225
C          1.17475        3.64832       -0.31605
C          2.10168        2.62890       -0.44969
C          3.45422        2.85779       -0.72163
C          3.97269        4.13564       -0.66023
C          3.11797        5.18196       -0.35649
C          1.74025        4.94739       -0.20760
Cl         0.79562        6.34661        0.19112
C         -2.71516        2.67670       -0.17946
C         -3.33128        4.09248       -0.32371
C         -2.71932        5.27038        0.15707
C         -3.27487        6.54913       -0.00154
C         -4.54251        6.68975       -0.53782
C         -5.24758        5.54561       -0.88635
C         -4.65843        4.26830       -0.77988
Cl        -5.69911        2.93371       -1.14844
H          3.28105       -2.47818       -0.35028
H          2.81381       -2.92946        1.32155
H          5.07931       -1.43999       -0.19698
H          6.40018        0.46261        0.52916
H          5.41046        2.14596        2.06935
H          3.11186        1.83595        2.91611
H          0.19456       -4.00323       -0.93532
H          0.20229       -3.89118        0.83028
H         -0.19039       -6.19484        0.20716
H          0.69874       -8.45868        0.40655
H          3.15078       -8.85767        0.40904
H          4.66394       -6.97262        0.08939
H         -0.51344        3.64811        0.91196
H         -0.67816        4.29105       -0.77661
H          1.81562        1.60924       -0.30004
H          4.10301        2.01315       -0.93255
H          5.03500        4.30248       -0.80805
H          3.52580        6.18218       -0.23899
H         -2.86909        2.39812        0.86857
H         -3.30516        2.02005       -0.82345
H         -1.78635        5.25319        0.70239
H         -2.71739        7.42678        0.31983
H         -4.98907        7.67455       -0.63997
H         -6.27599        5.65031       -1.22826
