17

N          1.12691       -0.01850        0.18264
C          2.51543        0.00991       -0.01220
C          3.24018       -1.18684       -0.03809
C          4.64163       -1.20765       -0.07423
C          5.29238        0.02665       -0.03749
N          6.62034        0.36291       -0.02812
N          6.85360        1.68659        0.02445
C          5.62703        2.21525        0.06684
C          4.60960        1.23540        0.02970
C          3.20319        1.22984        0.06196
H          0.67511       -0.85297       -0.17723
H          0.65146        0.83274       -0.09937
H          2.70979       -2.13659       -0.02618
H          5.18684       -2.14468       -0.10441
H          7.41544       -0.26516       -0.04700
H          5.52044        3.29010        0.12373
H          2.66138        2.16585        0.15017
