78

O          0.78260        0.12476       -0.11560
C          1.99694        0.27231       -0.20821
C          2.79437       -0.88816       -0.69566
C          3.79667       -1.45616        0.05983
C          4.49006       -2.61777       -0.32625
C          4.07165       -3.25817       -1.48189
C          4.73674       -4.53411       -1.87105
O          5.58678       -5.06642       -1.16262
C          4.32280       -5.17265       -3.12584
C          3.76019       -6.44813       -3.09161
C          3.32625       -7.03166       -4.28295
C          3.51112       -6.34592       -5.50167
N          3.89295       -7.14209       -6.70930
C          3.69789       -6.45784       -7.96420
C          2.41839       -6.31845       -8.51392
C          2.24372       -5.58333       -9.68876
C          3.34142       -4.98816      -10.31738
C          4.61829       -5.10206       -9.76379
C          4.79596       -5.82587       -8.58657
O          6.04512       -5.76280       -7.98943
C          6.25203       -6.57703       -6.89669
C          7.28733       -6.27620       -6.01540
C          7.44500       -7.03542       -4.84914
C          6.66652       -8.17708       -4.63714
C          5.61614       -8.47083       -5.50430
C          5.31130       -7.55084       -6.51849
C          3.90593       -4.98764       -5.48015
C          4.40020       -4.43956       -4.31092
C          2.99763       -2.72359       -2.22045
C          2.37024       -1.53777       -1.84044
C          2.62301        1.54627        0.24829
C          3.76164        2.08798       -0.34981
C          4.42614        3.16679        0.26728
C          4.00051        3.63240        1.53348
N          5.05306        3.92105        2.56436
C          4.70115        4.78568        3.66848
C          4.60575        6.16858        3.51611
C          4.33857        6.97674        4.62378
C          4.16865        6.41768        5.90393
C          4.23988        5.04302        6.06500
C          4.49540        4.24140        4.95551
O          4.44919        2.88723        5.18158
C          4.91519        2.09486        4.16890
C          4.53194        0.76788        4.17677
C          4.94544       -0.05699        3.13854
C          5.84334        0.41288        2.16877
C          6.20600        1.75411        2.14352
C          5.57438        2.61948        3.04377
C          2.72689        3.23524        1.99037
C          2.05899        2.17912        1.35929
H          4.04332       -1.02503        1.00959
H          5.27959       -3.03317        0.29180
H          3.72928       -7.00653       -2.15932
H          3.02120       -8.07399       -4.28232
H          1.55966       -6.76175       -8.01713
H          1.24811       -5.46431      -10.11004
H          3.19703       -4.41514      -11.23033
H          5.46342       -4.60506      -10.23083
H          7.89078       -5.38632       -6.16705
H          8.15150       -6.72093       -4.08376
H          6.79727       -8.76615       -3.73244
H          4.91797       -9.26535       -5.25810
H          4.03650       -4.41746       -6.39530
H          4.86197       -3.45548       -4.33857
H          2.59027       -3.22980       -3.09022
H          1.53041       -1.16842       -2.41316
H          4.19317        1.64023       -1.24188
H          5.38887        3.48809       -0.12542
H          4.75902        6.62641        2.54261
H          4.27835        8.05327        4.51350
H          3.97250        7.05197        6.76366
H          4.09635        4.58966        7.04145
H          3.82314        0.41147        4.91769
H          4.52384       -1.05753        3.07609
H          6.15892       -0.22764        1.34862
H          6.77640        2.14498        1.30380
H          2.34913        3.57881        2.95135
H          1.15354        1.78106        1.81439
