82

O          2.84418       -0.30099        3.82423
C          2.29195       -0.18044        2.73678
C          0.93301        0.44632        2.71141
C         -0.10954       -0.27796        2.17029
C         -1.42656        0.14325        2.19098
C         -1.80123        1.30189        2.86005
N         -3.20343        1.61757        2.99807
C         -4.23065        0.66818        2.62522
C         -5.19517        1.01660        1.66600
C         -6.15514        0.09015        1.25263
C         -6.17206       -1.19241        1.79999
C         -5.23438       -1.54667        2.76833
C         -4.27832       -0.62017        3.18767
C         -3.64034        2.82277        3.64131
C         -4.42858        2.74343        4.80088
C         -4.86633        3.90048        5.44057
C         -4.54045        5.14761        4.91554
C         -3.77740        5.24055        3.75124
C         -3.32974        4.08065        3.11368
C         -0.74478        2.06618        3.41148
C          0.60849        1.64557        3.33930
C          2.93151       -0.69003        1.40240
C          4.39352       -0.11727        1.21349
C          4.45286        1.42430        1.18389
C          4.23509        2.15410        2.36730
C          4.22005        3.55198        2.38232
C          4.49652        4.26069        1.22175
C          4.79608        3.56741        0.05445
C          4.76460        2.16675        0.03279
C          5.07890       -0.75404       -0.04228
C          5.11660       -2.29113       -0.03528
O          5.96371       -2.72639        1.03400
C          5.66044       -2.87821       -1.35342
C          7.01319       -2.80621       -1.67327
C          7.47196       -3.44112       -2.82906
C          6.58181       -4.14116       -3.63463
C          5.25284       -4.15613       -3.26740
N          4.77954       -3.52743       -2.17209
C          3.69470       -2.81510        0.15484
C          2.96243       -2.25980        1.37500
O          3.72483       -2.71314        2.51226
C          1.57712       -2.92788        1.35905
C          0.73520       -2.84270        0.23373
C         -0.56792       -3.33214        0.31134
C         -0.99504       -3.92841        1.48904
C         -0.09606       -4.01611        2.53914
N          1.16299       -3.51576        2.51099
H          0.04543       -1.25667        1.79770
H         -2.15455       -0.51329        1.72301
H         -5.17971        2.00675        1.21493
H         -6.88864        0.36827        0.49967
H         -6.91873       -1.91289        1.47468
H         -5.24984       -2.54441        3.19979
H         -3.55103       -0.90809        3.94349
H         -4.68041        1.77418        5.21701
H         -5.45823        3.81976        6.34757
H         -4.88490        6.04970        5.41476
H         -3.53372        6.21671        3.34009
H         -2.74768        4.16344        2.19883
H         -0.95264        2.99145        3.94522
H          1.38588        2.24753        3.80336
H          2.32117       -0.31659        0.56998
H          4.99787       -0.41375        2.08346
H          4.08397        1.64467        3.31620
H          4.00696        4.08020        3.30822
H          4.50104        5.34692        1.23244
H          5.06050        4.11636       -0.84591
H          5.01653        1.68535       -0.90750
H          6.10619       -0.37105       -0.11103
H          4.55015       -0.42912       -0.94855
H          5.39086       -2.86770        1.81947
H          7.70929       -2.29697       -1.01300
H          8.52701       -3.41228       -3.08519
H          6.91492       -4.67049       -4.52005
H          4.51080       -4.69734       -3.84833
H          3.73246       -3.91237        0.23958
H          3.12059       -2.57310       -0.74747
H          3.08238       -2.76057        3.25342
H          1.03906       -2.31940       -0.66835
H         -1.25212       -3.20106       -0.52317
H         -2.01015       -4.29494        1.59185
H         -0.38472       -4.48412        3.47905
