36

O          1.18584       -0.28122        0.16222
S          2.64224       -0.27683        0.07901
O          3.28171       -1.36163        0.82362
O          3.21881       -0.04401       -1.24538
C          3.12351        1.22531        1.00804
C          3.97699        1.08725        2.10604
C          4.29694        2.21194        2.85771
O          5.12630        2.08888        3.94846
C          3.78915        3.48210        2.52783
C          4.11821        4.60035        3.28370
C          3.64244        5.86002        2.93629
C          2.79407        6.09216        1.83065
C          2.29462        7.36475        1.43434
S          2.72580        8.96903        2.27294
O          3.36534        9.72545        1.20013
O          1.42081        9.46286        2.70251
O          3.62632        8.67210        3.38478
C          1.42040        7.47662        0.32711
C          1.03065        6.34171       -0.41610
S         -0.13647        6.65658       -1.83099
O         -1.28726        7.25825       -1.15693
O          0.63642        7.56961       -2.67309
O         -0.44976        5.39295       -2.48262
C          1.53789        5.06783       -0.06808
C          1.24365        3.89559       -0.77566
C          1.77202        2.66058       -0.44972
C          2.60664        2.49113        0.64647
C          2.93550        3.64413        1.40883
C          2.41815        4.94505        1.05794
H          4.36815        0.10788        2.35399
H          5.37594        1.15625        4.02747
H          4.76169        4.52125        4.15627
H          3.97540        6.65748        3.58577
H          1.04431        8.45730        0.03608
H          0.59216        3.86581       -1.63524
H          1.49252        1.83754       -1.10210
