49

O          1.02676       -0.25489        0.04356
N          2.24769       -0.04421        0.00999
O          2.86721        0.39860       -0.96684
C          3.01418       -0.33612        1.21940
C          4.15653        0.41928        1.50881
C          4.89169        0.13692        2.66626
C          4.49926       -0.90475        3.52077
C          5.27608       -1.24225        4.70911
N          5.76864       -2.42825        4.99606
C          6.35977       -2.30109        6.22970
C          6.95312       -3.43713        6.85226
C          7.15219       -4.65386        6.31942
C          7.79309       -5.73561        7.08711
C          8.64097       -6.63529        6.43160
C          9.25097       -7.67809        7.13632
C          9.01754       -7.83399        8.50225
C          8.17612       -6.94859        9.16699
C          7.56190       -5.91218        8.46187
C          6.21287       -1.02011        6.73651
C          6.49698       -0.29821        7.93881
C          7.31599       -0.78956        8.87942
C          7.58895       -0.27947       10.23487
C          8.77763       -0.70303       10.85513
C          9.03835       -0.40472       12.19196
C          8.11131        0.32329       12.93045
C          6.92845        0.75349       12.32877
C          6.66399        0.45006       10.98806
N          5.54864       -0.35654        5.72688
C          3.35629       -1.65817        3.20573
C          2.60218       -1.37155        2.06404
H          4.48644        1.21488        0.84355
H          5.79411        0.70955        2.87486
H          7.28507       -3.30959        7.86929
H          6.86310       -4.86594        5.29368
H          8.84429       -6.52469        5.36909
H          9.90895       -8.37001        6.61626
H          9.48803       -8.64935        9.04632
H          7.98948       -7.06537       10.23091
H          6.89519       -5.24562        9.00418
H          5.99730        0.65389        8.10860
H          7.86856       -1.69784        8.69553
H          9.50325       -1.29943       10.30482
H          9.95514       -0.75849       12.65652
H          8.30439        0.54123       13.97755
H          6.19803        1.30555       12.91502
H          5.71244        0.75490       10.56173
H          5.24790        0.60680        5.74396
H          3.05629       -2.48001        3.85529
H          1.71935       -1.96674        1.84030
