82

C          1.02192       -0.16757       -0.12482
C          2.56423       -0.16725       -0.11376
C          3.03606       -1.62674        0.06849
C          3.09879        0.31639       -1.47756
C          3.02691        0.76880        1.00732
C          3.59325        0.29206        2.19120
C          3.87905        1.14963        3.26059
C          4.27606        0.61139        4.46284
C          4.47520        1.45070        5.55076
C          4.47343        2.86622        5.48748
C          4.87145        3.73693        6.55879
N          5.56057        3.28776        7.78780
C          5.78870        4.14463        8.93382
C          7.07029        4.19186        9.52315
C          7.29934        4.89837       10.70331
C          6.25217        5.58357       11.30946
C          4.98085        5.56149       10.73562
C          4.74596        4.83833        9.56164
C          6.07714        1.95070        7.96432
C          5.53358        1.14090        8.98426
C          5.90244       -0.19814        9.10561
C          6.83700       -0.73928        8.22586
C          7.43069        0.06581        7.25058
C          7.06817        1.41215        7.12836
C          4.60781        5.12017        6.38354
C          4.07068        5.70688        5.20585
N          3.72083        7.14324        5.22452
C          4.10746        8.04721        6.28263
C          3.15433        8.91378        6.85444
C          3.52011        9.88937        7.78179
C          4.84969       10.00868        8.17026
C          5.81561        9.15401        7.63003
C          5.45014        8.18812        6.69120
C          2.99662        7.79444        4.16036
C          3.66165        8.76817        3.38451
C          3.06248        9.30436        2.24723
C          1.77820        8.90059        1.88726
C          1.07812        7.99164        2.68571
C          1.67635        7.44870        3.82970
C          3.86279        4.83054        4.08319
C          3.50629        5.24376        2.77341
C          3.10918        4.38596        1.75374
C          3.20624        3.02529        1.93855
C          2.83047        2.15222        0.90771
C          3.70839        2.54079        3.15737
C          4.02036        3.42251        4.25357
H          0.62992       -0.84567       -0.89034
H          0.61264        0.82900       -0.32765
H          0.62192       -0.49023        0.84465
H          2.70682       -2.25617       -0.76683
H          2.62820       -2.07560        0.98167
H          4.12952       -1.68976        0.11745
H          2.80459       -0.36723       -2.28091
H          4.19392        0.37609       -1.47023
H          2.71813        1.30635       -1.75039
H          3.78388       -0.76914        2.32564
H          4.39027       -0.46010        4.59783
H          4.62030        0.92624        6.48416
H          7.89984        3.65519        9.06722
H          8.28970        4.89573       11.15211
H          6.42353        6.12313       12.23719
H          4.16300        6.09362       11.21376
H          3.73711        4.79229        9.16037
H          4.77404        1.54707        9.64869
H          5.43906       -0.81955        9.86730
H          7.09728       -1.79250        8.29644
H          8.15385       -0.36461        6.56265
H          7.51042        2.02140        6.34486
H          4.83136        5.77939        7.21170
H          2.11352        8.83983        6.55739
H          2.76919       10.56326        8.18485
H          5.14268       10.77417        8.88115
H          6.85257        9.24662        7.93113
H          6.22079        7.56072        6.24563
H          4.67998        9.05365        3.63718
H          3.61118       10.01176        1.62955
H          1.32820        9.28615        0.97582
H          0.08062        7.67477        2.39348
H          1.14104        6.71218        4.42163
H          3.53453        6.28240        2.48157
H          2.75811        4.80970        0.81614
H          2.37033        2.57030        0.01469
