29

O          1.18493        0.02709        0.06793
C          2.40678        0.01128        0.06809
C          3.24529       -1.18194        0.06780
C          2.92950       -2.53844        0.06742
C          3.99311       -3.45906        0.06723
C          5.33194       -3.00721        0.06739
C          5.62086       -1.63018        0.06781
C          4.54842       -0.73978        0.06794
C          4.49393        0.72191        0.06817
C          5.56196        1.62002        0.06872
C          5.30527        3.00698        0.06873
C          6.38843        3.90124        0.06855
C          6.16851        5.27877        0.06824
C          4.86852        5.78174        0.06823
C          3.77421        4.91440        0.06850
C          3.96950        3.51834        0.06866
B          2.82244        2.52546        0.06871
O          1.39403        2.88409        0.06859
N          3.20026        1.12714        0.06850
H          1.90040       -2.87307        0.06734
H          3.78396       -4.52075        0.06685
H          6.14166       -3.72494        0.06716
H          6.64333       -1.27669        0.06801
H          6.57815        1.24378        0.06873
H          7.40829        3.53434        0.06858
H          7.00959        5.96002        0.06797
H          4.70608        6.85183        0.06798
H          2.79217        5.36104        0.06850
H          1.30161        3.86448        0.06901
