47

O          2.27463       -1.86303       -0.52624
N          3.29787       -1.25407       -0.42941
O          3.96977       -1.01883       -1.53328
C          3.61084       -0.57845        0.80425
C          2.64347       -0.62757        1.83571
C          2.79678        0.07332        3.02262
C          3.89282        0.88798        3.20511
C          4.88744        0.98464        2.20979
C          4.79580        0.20981        1.01722
C          5.86965        0.33388        0.08182
C          6.92103        1.24197        0.28210
C          6.86255        2.05063        1.40383
N          5.88680        1.90000        2.32076
B          5.96128        3.09752        3.28306
F          4.63491        3.65265        3.42402
F          6.52389        2.67657        4.56340
N          6.94296        4.03646        2.54593
C          7.55840        3.31053        1.61772
C          8.51483        4.01518        0.91762
C          8.31709        5.32413        1.34453
C          8.88701        6.50796        0.87150
C          9.99108        6.48895       -0.00145
C         10.53338        7.68064       -0.47466
C          9.96770        8.89527       -0.10617
C          8.86084        8.93700        0.74081
C          8.29761        7.74730        1.26497
C          7.14324        7.74889        2.12474
C          6.41121        8.93089        2.40172
C          5.25422        8.89902        3.17600
C          4.82247        7.70883        3.73862
C          5.53143        6.53562        3.51274
C          6.66882        6.51805        2.68686
C          7.29124        5.31890        2.28148
H          1.73283       -1.19902        1.72167
H          2.03966        0.01787        3.79231
H          3.95899        1.45361        4.12680
H          5.91668       -0.21034       -0.84205
H          7.67429        1.39137       -0.48307
H          9.12629        3.67091        0.09485
H         10.45083        5.55531       -0.30588
H         11.39292        7.66264       -1.13105
H         10.38813        9.82090       -0.48241
H          8.47971        9.91567        0.97594
H          6.67253        9.88859        1.99073
H          4.68277        9.80344        3.33548
H          3.91909        7.68719        4.33733
H          5.13907        5.66351        3.96778
