112

C          1.18141       -0.04776       -0.23450
C          2.71894       -0.06142       -0.29213
C          3.22712        0.32161        1.09363
C          4.71801        0.43421        1.40147
N          5.11795        0.93413        2.76976
C          4.23877        1.09256        3.98228
C          2.72804        1.10625        3.75053
C          1.73128        1.38807        4.86931
C          0.31974        1.21998        4.27726
C          6.52633        0.90298        3.00045
C          7.43730        1.38198        2.03942
C          8.84245        1.31913        2.21125
C          9.40624        0.76814        3.36141
C         10.84894        0.64096        3.49605
C         12.04721        0.48929        3.55336
C         13.48360        0.22874        3.56843
C         14.40717        1.30012        3.53991
C         15.80735        1.08677        3.46196
C         16.68908        2.23511        3.34600
C         17.40967        3.20634        3.20640
C         18.25294        4.36271        3.03137
C         17.74733        5.65678        3.17006
F         16.45043        5.84337        3.45875
C         18.57233        6.77377        3.00328
F         18.05945        8.00558        3.12552
C         19.91755        6.61563        2.70815
F         20.70689        7.68708        2.55644
C         20.43629        5.34027        2.56210
F         21.73549        5.17496        2.27389
C         19.60931        4.22949        2.71139
F         20.13863        3.01855        2.51818
C         16.30460       -0.23664        3.47751
C         17.71299       -0.57160        3.37487
C         18.87878       -0.84783        3.23923
C         20.29286       -1.00762        2.99364
C         21.07426        0.12371        2.94377
C         22.43444        0.06457        2.58187
C         23.11987       -1.10475        2.23023
N         24.46036       -1.15479        1.78995
C         25.30657       -0.01218        1.29986
C         24.79444        1.40036        1.47168
C         25.67442        2.54936        0.99618
C         24.90277        3.84556        1.25047
C         25.04789       -2.51662        1.53752
C         26.48475       -2.53867        0.96952
C         27.05156       -3.95111        0.78771
C         28.46371       -3.90020        0.21074
C         22.31545       -2.25586        2.39954
C         20.93310       -2.21773        2.76178
C         15.38506       -1.30066        3.53446
C         13.99136       -1.08321        3.55822
C         13.12905       -2.23964        3.51464
C         12.42563       -3.21165        3.43610
C         11.59025       -4.37176        3.30900
C         12.13071       -5.65690        3.36970
F         13.45015       -5.82822        3.55178
C         11.31757       -6.78193        3.23768
F         11.85410       -8.00915        3.29435
C          9.95180       -6.63445        3.04403
F          9.16860       -7.71383        2.91246
C          9.39890       -5.36065        2.97999
F          8.07938       -5.21614        2.78857
C         10.21107       -4.23865        3.11167
F          9.65544       -3.01794        3.04405
C          8.52694        0.31621        4.34712
C          7.11730        0.39074        4.17094
H          0.73896       -0.31733       -1.19609
H          0.80742        0.94588        0.04419
H          0.81007       -0.75242        0.52053
H          3.06157        0.65353       -1.04583
H          3.06568       -1.06025       -0.57215
H          2.81569       -0.45137        1.74138
H          2.77796        1.29824        1.26768
H          5.12923        1.11631        0.64890
H          5.17684       -0.54885        1.23643
H          4.50632        2.04837        4.45184
H          4.44319        0.30064        4.70919
H          2.45156        0.10350        3.43001
H          2.50624        1.86260        2.99813
H          1.84957        2.40757        5.24681
H          1.86278        0.68751        5.69899
H          0.16504        1.89837        3.42848
H         -0.45630        1.42275        5.01883
H          0.16959        0.19941        3.90154
H          7.07041        1.84718        1.12867
H          9.48309        1.70427        1.42154
H         14.02843        2.32184        3.54335
H         20.64496        1.08760        3.17942
H         22.88176        1.03794        2.62368
H         25.50224       -0.15943        0.23098
H         26.26960       -0.06050        1.82242
H         24.66270        1.57410        2.54407
H         23.85127        1.48806        0.92109
H         25.90783        2.45480       -0.06892
H         26.61782        2.56566        1.55253
H         23.96660        3.85539        0.67942
H         25.48763        4.72260        0.96682
H         24.63751        3.93791        2.31090
H         24.41449       -3.05666        0.82261
H         25.05508       -3.07021        2.48486
H         27.16064       -1.98766        1.63273
H         26.50368       -2.04491       -0.00925
H         26.41130       -4.53225        0.11462
H         27.07736       -4.47229        1.75103
H         28.47077       -3.41618       -0.77186
H         28.86892       -4.91010        0.09175
H         29.13813       -3.34131        0.86835
H         22.72814       -3.24807        2.24155
H         20.38292       -3.14989        2.84271
H         15.76284       -2.32379        3.52835
H          8.91616       -0.12176        5.26384
H          6.50430       -0.01735        4.96878
