68

C          4.48175        1.29223       -3.05772
N          4.20935        2.12465       -1.89373
C          3.12542        1.89528       -1.02593
C          1.98289        2.62110       -1.10350
C          1.93459        3.80537       -1.96168
C          2.42929        4.98360       -1.52921
C          2.60812        6.19978       -2.36963
N          1.86441        6.59994       -3.35938
C          0.55169        6.12532       -3.81406
C          2.39690        7.77945       -3.92797
C          1.97081        8.40540       -5.08504
C          2.63103        9.57017       -5.47212
C          3.60734       10.16309       -4.64845
C          4.17548       11.39148       -5.02451
C          5.05697       12.06047       -4.17972
C          5.39799       11.49787       -2.95803
C          4.90533       10.23758       -2.60475
C          4.00780        9.53317       -3.43930
C          3.45364        8.26610       -3.15973
C          3.83443        7.15616       -2.20452
C          4.09709        7.56059       -0.75581
C          5.07018        6.44909       -2.79089
C          3.71727        1.42071        0.33557
C          2.76398        1.42324        1.53373
C          4.24263       -0.04047        0.21778
C          4.91673        2.39400        0.31111
C          5.30839        2.47514       -1.06054
C          6.40842        3.19152       -1.48107
C          6.97184        4.07288       -0.56620
C          6.40023        4.25633        0.70956
C          6.76778        5.38234        1.46105
C          6.13944        5.67600        2.66878
C          5.19369        4.80102        3.18163
C          4.84820        3.64936        2.47155
C          5.38928        3.37738        1.19651
H          4.80390        0.28611       -2.77404
H          5.23149        1.73846       -3.70598
H          3.55537        1.18542       -3.65605
H          1.25149        2.59709       -0.30213
H          1.61133        3.61959       -2.97702
H          2.83332        5.04422       -0.51918
H          0.17679        5.33646       -3.16040
H          0.63925        5.75712       -4.83763
H         -0.15998        6.95806       -3.75744
H          1.19536        8.00314       -5.73046
H          2.35453       10.04548       -6.41410
H          3.91698       11.85689       -5.97358
H          5.46136       13.02921       -4.46744
H          6.04643       12.04203       -2.27434
H          5.19949        9.86071       -1.63264
H          3.30194        8.19890       -0.35916
H          5.04928        8.08926       -0.65017
H          4.18506        6.68885       -0.10047
H          4.88854        6.08048       -3.80901
H          5.33403        5.58360       -2.18661
H          5.93834        7.11543       -2.83432
H          1.93423        0.72406        1.36931
H          2.33073        2.40612        1.73849
H          3.27638        1.07877        2.44071
H          3.42141       -0.73932        0.01790
H          4.73668       -0.35495        1.14533
H          4.98343       -0.18212       -0.57546
H          6.71215        3.21539       -2.52114
H          7.77087        4.72817       -0.90851
H          7.50874        6.08220        1.07944
H          6.38969        6.58575        3.20828
H          4.70778        5.01755        4.13045
H          4.10864        3.00476        2.92763
