36

C          0.84846        0.07212       -0.25742
C          2.32924       -0.01593        0.08941
C          3.17675       -1.01725       -0.69127
C          4.47726       -1.24447       -0.41140
C          5.25954       -0.53574        0.66805
C          4.94544       -2.29598       -1.35038
C          6.15963       -2.91725       -1.47711
C          7.37761       -2.66879       -0.61751
C          6.29971       -3.93416       -2.55095
C          7.42346       -4.67892       -2.86791
C          7.07176       -5.47962       -3.93876
C          5.75224       -5.19642       -4.23302
N          5.29558       -4.25833       -3.38257
B          3.89438       -3.64420       -3.33079
F          2.92212       -4.70145       -3.09050
F          3.61049       -2.99134       -4.60170
N          3.83816       -2.61080       -2.18921
C          2.81250       -1.90476       -1.83562
C          1.45731       -1.97298       -2.51021
H          0.36682        0.82078        0.40670
H          0.35017       -0.90114       -0.07264
H          0.69893        0.41094       -1.29993
H          2.38042       -0.29410        1.16446
H          2.77359        0.99496       -0.03736
H          4.66341        0.22925        1.20194
H          6.11970       -0.00445        0.20971
H          5.60073       -1.26566        1.42956
H          7.26022       -1.92472        0.17255
H          8.21793       -2.33262       -1.25911
H          7.66584       -3.61921       -0.11959
H          8.39034       -4.64812       -2.38378
H          7.70798       -6.19059       -4.44845
H          5.16601       -5.65117       -5.02159
H          1.41650       -2.69753       -3.34427
H          1.20508       -0.98529       -2.94214
H          0.68648       -2.28993       -1.78220
