110

C          0.99898       -0.03492        0.07096
C          2.51714       -0.02605        0.07918
C          3.04884        1.02207        1.05112
C          4.57352        1.03317        1.06139
C          5.09858        2.08324        2.03504
C          6.62475        2.09498        2.04563
C          7.15370        3.14518        3.01894
C          8.68608        3.16930        3.04126
C          9.19527        4.22899        4.02801
C         10.72816        4.30567        4.11831
C         11.18953        5.37541        5.16350
C         12.72259        5.42297        5.30971
N         13.44323        6.34849        6.24531
C         14.80147        6.43971        6.03510
O         15.44421        5.77755        5.25911
C         15.35714        7.42295        6.98224
C         14.45544        7.64512        7.97552
C         14.88978        8.39263        9.12694
C         13.97609        8.48636       10.15378
C         14.20514        9.37041       11.16983
C         15.39930        9.98194       11.46864
C         15.37214       10.84999       12.53881
C         15.87013       10.26189       13.66049
C         14.96180        9.28381       14.34115
C         14.82430        7.96330       13.86973
C         13.54587        7.37506       13.80755
C         12.42880        8.03849       14.32847
C         11.03266        7.54130       14.08586
C         12.62391        9.23194       15.02781
C         13.87566        9.84893       15.02920
C         17.23273       10.22063       13.50799
O         18.04647       10.60973       14.55579
C         17.44565       10.98729       15.85233
C         17.64175       10.01510       12.07590
C         16.58819        9.61632       10.85324
C         16.21606        9.05342        9.32078
C         16.91968        9.05483        7.98335
C         16.50000        8.15938        6.89482
C         17.12359        8.08271        5.65338
C         18.19735        8.87997        5.36321
C         18.57464        9.81534        6.28624
C         19.60049       10.64731        5.86507
C         20.02561       11.72947        6.62458
C         21.20839       12.40836        6.09173
C         21.17346       13.08037        4.85694
C         22.32508       13.67289        4.34615
C         23.51081       13.64860        5.08253
C         24.76857       14.26878        4.55216
C         23.53959       13.00571        6.32541
C         22.42086       12.32154        6.77975
C         19.34452       12.02619        7.81589
O         19.50018       13.09369        8.66355
C         20.53202       14.03935        8.44253
C         18.31635       11.14836        8.25799
C         17.94851        9.97971        7.55785
C         13.15019        7.00541        7.42683
O         12.05217        7.13211        7.92514
H          0.62764       -0.78923       -0.62853
H          0.60581        0.93987       -0.23498
H          0.60581       -0.26656        1.06602
H          2.88590        0.18162       -0.93209
H          2.88590       -1.01881        0.36242
H          2.67540        0.81356        2.06126
H          2.67539        2.01364        0.76710
H          4.94940        1.24376        0.05271
H          4.94943        0.04323        1.34741
H          4.72164        1.87290        3.04361
H          4.72146        3.07303        1.74939
H          6.99712        2.30414        1.03555
H          6.99724        1.10366        2.33072
H          6.77191        2.93302        4.02541
H          6.77164        4.13275        2.73194
H          9.06035        3.37965        2.03195
H          9.05922        2.17779        3.32547
H          8.78998        4.00544        5.02170
H          8.80208        5.20754        3.72821
H         11.13181        4.53719        3.12244
H         11.11826        3.31516        4.38859
H         10.73586        5.13772        6.12843
H         10.81533        6.35187        4.83948
H         13.11487        5.64871        4.30467
H         13.08423        4.41049        5.53049
H         13.03657        7.94056       10.14815
H         13.36963        9.53616       11.88230
H         15.91677       11.79568       12.31756
H         15.63152        7.48483       13.31695
H         13.41322        6.46546       13.22117
H         11.01289        6.73281       13.34738
H         10.40862        8.35049       13.68469
H         10.58969        7.17973       15.01683
H         11.77719        9.75881       15.46407
H         13.95064       10.86769       15.40543
H         16.47642       10.53187       16.07907
H         17.33840       12.07817       15.97619
H         18.11182       10.65964       16.66381
H         18.72152       10.05329       11.85112
H         16.77530        7.45731        4.83775
H         18.63857        8.79830        4.37301
H         20.09543       10.44618        4.91145
H         20.24942       13.12638        4.28310
H         22.28807       14.14865        3.36729
H         24.65318       14.56466        3.50639
H         25.57622       13.53246        4.59911
H         25.04681       15.15148        5.13590
H         24.42873       13.02661        6.94156
H         22.47450       11.75800        7.71265
H         20.40671       14.86484        9.14744
H         20.49657       14.47564        7.43967
H         21.50618       13.60073        8.68017
H         17.76549       11.44294        9.14352
