31

C          1.09428        0.22930       -0.41995
C          2.58281        0.10388       -0.18069
C          3.09713       -0.27677        1.01151
C          2.41454       -0.70366        2.24572
C          2.88071       -0.22608        3.47774
C          2.30951       -0.66720        4.67441
C          1.26773       -1.59166        4.65073
C          0.81688       -2.09692        3.43320
C          1.40294       -1.67107        2.23828
C          3.57893        0.29453       -1.21799
N          4.70213       -0.41383       -1.26831
C          5.38823        0.04781       -2.34493
C          6.62868       -0.35759       -2.84933
C          7.12891        0.29448       -3.97883
C          6.40768        1.32976       -4.58017
C          5.15276        1.74458       -4.08739
C          4.68067        1.05986       -2.96215
O          3.50521        1.21515       -2.26465
H          0.50647        0.15832        0.50054
H          0.75494       -0.57294       -1.08485
H          0.83905        1.19153       -0.87206
H          4.18410       -0.31913        1.12433
H          3.69998        0.48832        3.51689
H          2.68336       -0.29335        5.62415
H          0.81691       -1.92818        5.58058
H          0.01681       -2.83232        3.41271
H          1.06802       -2.11405        1.30333
H          7.17384       -1.15979       -2.36542
H          8.09147       -0.01241       -4.38367
H          6.83376        1.82498       -5.45385
H          4.59953        2.54662       -4.55572
