37

C          1.08024        0.00841       -0.06081
C          2.57372        0.20794       -0.13618
O          3.21835       -0.13233       -1.12553
C          3.26616        0.88040        0.99947
C          4.49635        1.51436        0.76896
C          5.18404        2.14927        1.81498
C          4.65407        2.14139        3.11486
C          5.32418        2.71220        4.29002
N          5.18405        2.18397        5.48689
C          5.76038        2.98842        6.44244
C          5.73436        2.75171        7.81991
C          6.28236        3.69915        8.69530
C          6.89814        4.88566        8.26390
N          7.34077        5.84339        9.17720
C          7.60040        5.51667       10.58377
C          8.00382        7.07422        8.74545
C          6.96056        5.07917        6.86294
C          6.37756        4.14217        5.97519
S          6.24780        4.16325        4.24629
C          3.42242        1.49135        3.32716
C          2.72907        0.87541        2.28594
H          0.74929       -0.56050       -0.93514
H          0.57948        0.98046       -0.07109
H          0.79477       -0.56332        0.82463
H          4.93007        1.51176       -0.22844
H          6.14106        2.61819        1.60856
H          5.25028        1.86001        8.20356
H          6.15924        3.47146        9.74703
H          7.06466        4.65186       10.97626
H          7.29669        6.35970       11.21514
H          8.67078        5.34392       10.73996
H          7.62352        7.47504        7.80356
H          9.08488        6.91739        8.66598
H          7.83346        7.86264        9.48878
H          7.42513        5.95766        6.43141
H          3.00088        1.45461        4.33223
H          1.79508        0.37516        2.52096
