69

C          1.85919        0.29635       -0.61546
C          3.02578        0.00778       -0.50440
C          4.44473       -0.35267       -0.36244
N          4.67864       -1.70768       -0.89174
C          4.13400       -2.85784       -0.43240
C          3.24279       -3.02435        0.63182
C          2.80245       -4.32430        0.93273
C          3.24148       -5.42388        0.16741
C          4.13398       -5.24053       -0.90433
C          4.56249       -3.94322       -1.17751
C          5.41363       -3.44811       -2.14110
C          6.11359       -4.07826       -3.18638
C          6.91828       -3.28373       -4.03993
C          7.59480       -3.90534       -5.24971
C          8.49460       -3.20469       -5.96430
C          9.09802       -3.45580       -7.31703
C          8.91628       -2.21725       -7.92583
C         10.12936       -1.71506       -8.26782
C         10.35006       -0.43098       -8.99547
C         11.05875       -2.65081       -7.89446
N         10.42821       -3.76318       -7.46933
B         10.97572       -5.08912       -8.11945
F         11.36365       -6.03107       -7.07970
F          9.91284       -5.67667       -8.92342
N         12.22833       -4.79591       -9.02166
C         12.87566       -5.59260       -9.80730
C         12.48129       -6.98494      -10.20503
C         14.13575       -4.96798      -10.24942
C         14.22481       -3.76924       -9.67691
C         15.37520       -2.82262       -9.86696
C         12.95978       -3.58445       -8.94785
C         12.47114       -2.54237       -8.27241
C         13.22152       -1.34940       -7.80041
C         13.33930       -1.25775       -6.39565
C         14.05508       -0.22321       -5.80004
C         14.64988        0.75268       -6.59517
I         15.74032        2.30676       -5.67599
C         14.52248        0.68822       -7.99135
C         13.81174       -0.36262       -8.59641
C          6.98339       -1.87170       -3.77767
C          6.26677       -1.27468       -2.73210
C          5.47708       -2.08150       -1.92635
H          0.83352        0.54297       -0.71101
H          4.72875       -0.31253        0.70857
H          5.04037        0.40549       -0.90372
H          2.90660       -2.18320        1.22404
H          2.11336       -4.47777        1.75406
H          2.89231       -6.41813        0.40834
H          4.47810       -6.07861       -1.49439
H          6.01821       -5.14444       -3.34365
H          7.27841       -4.88499       -5.59161
H          8.79614       -2.24792       -5.55762
H          7.99943       -1.63907       -7.95983
H          9.37510        0.04245       -9.23876
H         10.86163       -0.66247       -9.95649
H         10.96566        0.26316       -8.39645
H         11.52268       -7.30246       -9.75655
H         13.27692       -7.69605       -9.90651
H         12.37314       -7.01399      -11.31177
H         14.88009       -5.41092      -10.89926
H         16.17203       -3.28788      -10.48450
H         15.80370       -2.54337       -8.88247
H         15.04289       -1.92116      -10.41209
H         12.89657       -2.01329       -5.75409
H         14.14917       -0.18913       -4.71988
H         14.97888        1.45391       -8.60167
H         13.71063       -0.38837       -9.66888
H          7.54176       -1.17942       -4.38306
H          6.32938       -0.20444       -2.58500
