62

C          0.59785        0.93204        0.97261
C          2.01140        0.52902        0.50926
C          2.28398       -0.89711        1.04893
C          1.99299        0.48299       -1.03620
C          3.13608        1.45122        1.02404
C          4.45721        1.15889        0.62284
C          5.56508        1.78856        1.17958
C          5.30286        2.75699        2.13265
O          6.27091        3.40151        2.81580
C          5.65686        4.34716        3.55760
N          6.35002        5.21030        4.29852
C          5.62666        6.22548        4.76959
O          6.19859        7.27302        5.39924
C          5.22839        8.19374        5.57829
C          5.46364        9.46039        6.08895
C          4.35825       10.29605        6.19259
C          3.06182        9.86935        5.83253
N          1.90968       10.71007        6.17289
C          2.12410       12.13449        6.11906
C          2.23571       12.76053        4.86349
C          2.54036       14.12083        4.76630
C          2.74488       14.87319        5.92055
C          2.63511       14.27014        7.17429
C          2.31800       12.90820        7.28293
S          2.31815       12.17228        8.91286
C          1.39447       10.67982        8.60507
C          0.90099        9.96602        9.70386
C          0.13054        8.81723        9.51680
C         -0.19576        8.40027        8.23048
C          0.31471        9.08727        7.13047
C          1.17195       10.18807        7.30579
C          2.88201        8.57657        5.27719
C          3.99277        7.71442        5.15074
C          4.25164        6.40885        4.61803
C          3.54167        5.37676        3.95851
C          4.27439        4.32639        3.35846
C          4.03641        3.19945        2.49912
C          2.92397        2.52041        1.93738
H         -0.15248        0.22913        0.58915
H          0.32524        1.92991        0.61169
H          0.51201        0.92565        2.06461
H          1.52036       -1.60613        0.71192
H          2.29313       -0.90655        2.14574
H          3.25215       -1.28977        0.71577
H          1.18499       -0.16037       -1.40109
H          2.92295        0.08498       -1.45618
H          1.84378        1.48328       -1.45917
H          4.65423        0.38219       -0.11419
H          6.57785        1.53400        0.89681
H          6.45429        9.77545        6.39216
H          4.52533       11.28200        6.61930
H          2.09651       12.17772        3.95752
H          2.63130       14.58968        3.78903
H          3.00442       15.92734        5.84566
H          2.82421       14.86499        8.06542
H          1.13084       10.29045       10.71589
H         -0.22204        8.25500       10.37736
H         -0.82078        7.52400        8.08112
H          0.06402        8.74609        6.13073
H          1.90444        8.24392        4.94839
H          2.46505        5.44573        3.82588
H          1.92437        2.81003        2.24750
