45

C          0.82571       -0.08950        0.04707
C          2.34634        0.08686        0.12908
C          2.65729        1.58037        0.15770
N          2.81546       -0.63640        1.33189
C          4.19901       -0.87751        1.45235
C          4.68560       -2.19505        1.38194
C          6.06003       -2.49072        1.48453
S          6.53064       -4.20371        1.45630
C          8.29243       -4.15547        1.67142
C          8.96009       -5.38757        1.82031
C         10.35885       -5.47996        1.94943
N         10.89955       -6.72702        2.25991
C         12.33099       -6.95142        2.46637
C         12.74872       -6.46114        3.85620
C         12.61723       -8.45169        2.36196
C         11.07422       -4.27566        1.90130
F         12.41390       -4.25744        1.96678
C         10.43528       -3.04753        1.78435
C          9.04147       -2.98171        1.69382
C          8.42918       -1.64016        1.66158
O          9.16172       -0.65265        1.68950
C          6.96720       -1.44174        1.61446
C          6.49893       -0.12584        1.71348
C          5.13781        0.14029        1.65523
F          4.75194        1.40673        1.86117
H          0.40389        0.47315       -0.79229
H          0.33747        0.25382        0.96732
H          0.56258       -1.14358       -0.09253
H          2.78594       -0.36047       -0.77110
H          2.47173        2.01338        1.14828
H          2.05195        2.12998       -0.56974
H          3.69956        1.76883       -0.11534
H          2.30305       -1.51313        1.42782
H          3.97689       -3.01343        1.25339
H          8.37314       -6.30527        1.86048
H         10.38365       -7.51781        1.88541
H         12.91782       -6.45361        1.68599
H         12.22205       -7.01150        4.64296
H         12.52725       -5.40191        4.00929
H         13.82425       -6.59683        4.00504
H         12.06647       -9.01581        3.12269
H         13.68549       -8.65311        2.49546
H         12.31940       -8.83908        1.38189
H         11.04318       -2.14593        1.78603
H          7.18358        0.70681        1.85738
