56

C         -2.39348        0.92705       -0.83689
C         -1.26919        0.24006       -0.02347
C         -1.63739        0.44272        1.45785
C         -1.25275       -1.25537       -0.40485
C         -0.02052       -1.98749        0.13148
N          0.04481       -3.37970       -0.36682
C         -0.91998       -4.16498       -0.03336
C         -0.96172       -5.57185       -0.49728
C          0.22732       -6.30324       -0.43745
C          0.25746       -7.62416       -0.87480
C         -0.89115       -8.23190       -1.40097
C         -0.85236       -9.55121       -1.87538
C         -1.98779      -10.15430       -2.41629
C         -3.19416       -9.45156       -2.49425
C         -4.33976      -10.04803       -3.04278
C         -5.53738       -9.33943       -3.11904
C         -5.60334       -8.02894       -2.64999
C         -4.47166       -7.40882       -2.09546
C         -4.52651       -6.09457       -1.62232
C         -3.39101       -5.47882       -1.08510
C         -2.15622       -6.15595       -0.99511
C         -2.10088       -7.49673       -1.46330
C         -3.25627       -8.11944       -2.01562
C          1.22940       -1.26530       -0.38864
C          1.25816        0.23375       -0.02153
C          2.37450        0.92298       -0.84545
C          1.64169        0.43676        1.45540
N         -0.00569        0.91093       -0.38582
H         -3.37461        0.51002       -0.57741
H         -2.25691        0.79305       -1.91573
H         -2.43280        2.00489       -0.63623
H         -2.63474        0.03753        1.66722
H         -1.65556        1.50706        1.72083
H         -0.96718       -0.06287        2.14971
H         -1.27696       -1.35870       -1.49971
H         -2.17237       -1.72935       -0.04212
H         -0.01328       -2.00196        1.22633
H         -1.76415       -3.82941        0.59429
H          1.13271       -5.84538       -0.04386
H          1.19291       -8.17803       -0.81151
H          0.07140      -10.12404       -1.83251
H         -1.91724      -11.17628       -2.78003
H         -4.30739      -11.06790       -3.41497
H         -6.42002       -9.81022       -3.54535
H         -6.54615       -7.49246       -2.72275
H         -5.45499       -5.52891       -1.67378
H         -3.49162       -4.45019       -0.74807
H          1.26869       -1.37121       -1.48317
H          2.13267       -1.76355       -0.01222
H          3.36074        0.51406       -0.59453
H          2.40902        2.00245       -0.64672
H          2.22957        0.79011       -1.92364
H          2.64485        0.03808        1.65049
H          0.98460       -0.07873        2.15284
H          1.65600        1.49990        1.72230
H         -0.00353        1.02178       -1.40346
