58

C          1.02508       -0.09083        0.36941
C          2.55623       -0.04086        0.10783
C          3.13648        0.29309        1.52277
C          3.06288       -1.44995       -0.31746
C          2.64150       -1.80410       -1.74979
N          3.14601       -3.14009       -2.13230
C          2.64063       -3.54516       -3.44016
C          3.13612       -4.92090       -3.80415
C          2.35984       -6.01074       -3.38166
C          2.74528       -7.30892       -3.67237
C          3.91894       -7.54492       -4.39181
C          4.30265       -8.85585       -4.68367
C          5.47526       -9.10872       -5.39590
C          6.28749       -8.05926       -5.83525
C          7.46826       -8.30665       -6.54906
C          8.27374       -7.25401       -6.98010
C          7.91025       -5.93853       -6.69773
C          6.73765       -5.66132       -5.98176
C          6.36910       -4.34943       -5.67859
C          5.20248       -4.09302       -4.95456
C          4.34587       -5.13201       -4.51963
C          4.72140       -6.46354       -4.81861
C          5.91438       -6.72546       -5.54698
C          3.12969       -0.72142       -2.71506
C          2.61333        0.68348       -2.34389
C          1.09686        0.78130       -2.66831
C          3.25467        1.69206       -3.35412
N          2.86060        1.02658       -0.90713
O          4.22743        1.33658       -0.78717
H          0.79767       -0.65522        1.28220
H          0.45584       -0.59053       -0.41136
H          0.61515        0.91707        0.50239
H          2.79106       -0.43112        2.27100
H          2.80861        1.28603        1.85529
H          4.23096        0.26372        1.55364
H          2.67662       -2.20577        0.38108
H          4.15833       -1.49587       -0.23575
H          1.54935       -1.86882       -1.77756
H          2.84845       -3.81414       -1.42846
H          2.94121       -2.85836       -4.23482
H          1.54414       -3.53551       -3.45275
H          1.44725       -5.83857       -2.81365
H          2.12310       -8.13002       -3.32968
H          3.69643       -9.69460       -4.35526
H          5.74879      -10.14093       -5.60634
H          7.76907       -9.32680       -6.77447
H          9.18719       -7.45803       -7.53080
H          8.55223       -5.12792       -7.03511
H          6.98771       -3.50946       -5.98604
H          4.98477       -3.05308       -4.71647
H          2.79586       -0.92960       -3.73697
H          4.22853       -0.73639       -2.74616
H          0.92330        0.74954       -3.75145
H          0.67403        1.72144       -2.29830
H          0.50179       -0.03987       -2.27447
H          2.95762        1.45125       -4.38369
H          4.34990        1.66286       -3.34612
H          2.92936        2.71801       -3.15077
