45

C          2.24489        0.15893       -0.19211
C          3.39192        0.06489        0.95871
C          2.88564       -0.11030        1.62426
C          3.71823       -0.16994        2.24366
C          5.43217       -0.11838        0.11802
N          4.55798       -0.24304        3.04696
C          5.13977       -0.05767        2.26398
C          6.48518       -0.12366        2.94663
C          6.46699       -0.36310        4.62331
C          7.30215       -0.51467        5.80885
C          8.70781       -0.54418        6.05809
C          9.17961       -0.68436        7.39480
C          8.28551       -0.79439        8.47385
C          6.89623       -0.77929        8.25523
C          6.40695       -0.64647        6.93763
C          5.06859       -0.59313        6.47211
C          3.71318       -0.65767        7.15701
C          2.55051       -0.71303        7.74452
C          1.19510       -0.77756        8.42943
C          0.63105       -2.03059        8.70389
C         -0.66441       -2.11748        9.22060
C         -1.39001       -0.95248        9.48463
C         -0.81629        0.30055        9.24048
C          0.47181        0.38931        8.69993
N          5.21142       -0.44653        5.16248
B          4.05803       -0.39836        4.36312
F          3.28679        0.79866        4.69526
F          3.30655       -1.63823        4.44814
H          2.15450        0.23713       -1.28605
H          1.51213        0.96103        0.11401
H          1.57256       -0.78390       -0.10416
H          1.88793       -0.24779        2.05527
H          4.91091        0.01610       -0.87712
H          6.10167       -0.97814       -0.02723
H          6.07249        0.82229        0.10641
H          7.45862       -0.08673        2.42207
H          9.45218       -0.46146        5.27786
H         10.24808       -0.70449        7.61928
H          8.68098       -0.89097        9.48704
H          6.23642       -0.86288        9.11088
H          1.18308       -2.93833        8.49155
H         -1.10966       -3.08715        9.40391
H         -2.39734       -1.02228        9.87365
H         -1.37650        1.20105        9.45394
H          0.90110        1.35992        8.48560
